<?xml version="1.0" encoding="UTF-8"?>
<!DOCTYPE network SYSTEM "http://www.matsim.org/files/dtd/network_v2.dtd">
<network>

<!-- ====================================================================== -->

	<nodes>
		<node id="1038065159" x="1.3222787845185539E7" y="3769966.252427796" >
		</node>
		<node id="1038065160" x="1.3222617047690814E7" y="3769546.3846783526" >
		</node>
		<node id="1038857321" x="1.3224073974922415E7" y="3769883.3389098146" >
		</node>
		<node id="1038857363" x="1.3223615717106618E7" y="3769720.8889120147" >
		</node>
		<node id="1038859151" x="1.3223806440790193E7" y="3771706.2286177706" >
		</node>
		<node id="1058326193" x="1.3224576248464875E7" y="3769772.871621736" >
		</node>
		<node id="1058327569" x="1.322321895217753E7" y="3769806.7957801637" >
		</node>
		<node id="1067108841" x="1.322323744234495E7" y="3769914.334550528" >
		</node>
		<node id="1067108846" x="1.322299080288115E7" y="3769967.9598244866" >
		</node>
		<node id="1067108867" x="1.3222291137617618E7" y="3770426.864312146" >
		</node>
		<node id="1067108901" x="1.3222749439961212E7" y="3771027.564457928" >
		</node>
		<node id="1067108913" x="1.3223635732351063E7" y="3769827.2317499267" >
		</node>
		<node id="1067108926" x="1.3222715431856776E7" y="3771458.189347463" >
		</node>
		<node id="1067108936" x="1.322241877654576E7" y="3771019.144938906" >
		</node>
		<node id="1067108939" x="1.3223087995928563E7" y="3770403.3013595957" >
		</node>
		<node id="1067116363" x="1.3222769043323541E7" y="3770518.9625386274" >
		</node>
		<node id="1067116364" x="1.3222619162761139E7" y="3770678.3760970803" >
		</node>
		<node id="1120932551" x="1.3222926582666911E7" y="3769643.2698725504" >
		</node>
		<node id="1155833082" x="1.3222419333143216E7" y="3770072.9651868646" >
		</node>
		<node id="1155833083" x="1.3222712782452894E7" y="3769787.2397979433" >
		</node>
		<node id="1155833085" x="1.3222419455594655E7" y="3769835.0462848186" >
		</node>
		<node id="1155833090" x="1.3222764067342304E7" y="3770050.571846254" >
		</node>
		<node id="1155842356" x="1.3223460459812809E7" y="3770093.992637347" >
		</node>
		<node id="1155842358" x="1.3223353860268423E7" y="3770126.8407145035" >
		</node>
		<node id="1155842361" x="1.3223648355981316E7" y="3770040.550675673" >
		</node>
		<node id="1155842363" x="1.3223513303175088E7" y="3770252.244755113" >
		</node>
		<node id="1155842371" x="1.3223047186203238E7" y="3770228.28812174" >
		</node>
		<node id="1155842372" x="1.3223404232338008E7" y="3770286.0651932834" >
		</node>
		<node id="1155842373" x="1.3223419327260958E7" y="3770338.877803772" >
		</node>
		<node id="1155842378" x="1.3223464600897865E7" y="3770578.9607361173" >
		</node>
		<node id="1155842395" x="1.3223675117186906E7" y="3770207.78579963" >
		</node>
		<node id="1155842401" x="1.322329405943797E7" y="3770047.0125566665" >
		</node>
		<node id="1155842407" x="1.3223689221366387E7" y="3770358.001253418" >
		</node>
		<node id="1155842412" x="1.322355412403236E7" y="3770386.2136508985" >
		</node>
		<node id="1155842416" x="1.322326201055657E7" y="3769908.989110173" >
		</node>
		<node id="1155842421" x="1.32233190840595E7" y="3770041.378111462" >
		</node>
		<node id="1155842426" x="1.3223441279464543E7" y="3770420.1658092313" >
		</node>
		<node id="1155845059" x="1.3223712431480216E7" y="3770648.324174455" >
		</node>
		<node id="1155845083" x="1.3223963991265513E7" y="3770563.974293136" >
		</node>
		<node id="1155845086" x="1.3223806663429173E7" y="3770231.873733235" >
		</node>
		<node id="1155845098" x="1.3224059714895645E7" y="3770187.1521718823" >
		</node>
		<node id="1155845101" x="1.3223875202839658E7" y="3770603.4565836876" >
		</node>
		<node id="1155845109" x="1.3223940992658716E7" y="3770428.414162368" >
		</node>
		<node id="1155845125" x="1.322384361036817E7" y="3770428.4666996696" >
		</node>
		<node id="1155849840" x="1.322425506947004E7" y="3769657.1650884626" >
		</node>
		<node id="1155849850" x="1.3224305552859114E7" y="3769829.517008345" >
		</node>
		<node id="1166138226" x="1.322376950498315E7" y="3771226.2195324763" >
		</node>
		<node id="1212800598" x="1.3222927617938176E7" y="3770424.4475969323" >
		</node>
		<node id="1212800599" x="1.3222957529485352E7" y="3770664.466565858" >
		</node>
		<node id="1984595800" x="1.3223164761849413E7" y="3770993.25594002" >
		</node>
		<node id="2026696497" x="1.3222588750276253E7" y="3770174.1888605403" >
		</node>
		<node id="2026696512" x="1.3222758601555306E7" y="3770299.79040796" >
		</node>
		<node id="2026696513" x="1.3222599292232031E7" y="3770302.2333664717" >
		</node>
		<node id="2026696527" x="1.3222606594790628E7" y="3770437.227297541" >
		</node>
		<node id="2026696531" x="1.3222662844529325E7" y="3770626.9279868836" >
		</node>
		<node id="2448395560" x="1.3223547990328418E7" y="3770834.8889859347" >
		</node>
		<node id="2448395562" x="1.3223509919062568E7" y="3770835.637667792" >
		</node>
		<node id="2449059351" x="1.3223519470274879E7" y="3770650.754069254" >
		</node>
		<node id="2449059352" x="1.3223692160200946E7" y="3770638.5389274107" >
		</node>
		<node id="2449059357" x="1.3223522064019011E7" y="3770700.612992045" >
		</node>
		<node id="2449059359" x="1.3223641832659157E7" y="3770691.773394496" >
		</node>
		<node id="2449059360" x="1.322358474802428E7" y="3770645.881145586" >
		</node>
		<node id="2449059361" x="1.3223525459263481E7" y="3770768.085736187" >
		</node>
		<node id="2449059362" x="1.322364649694582E7" y="3770759.429974615" >
		</node>
		<node id="2449059363" x="1.322363829269935E7" y="3770642.4792943867" >
		</node>
		<node id="2449059364" x="1.3223651328211723E7" y="3770829.0834194147" >
		</node>
		<node id="2449713763" x="1.3223527986215923E7" y="3770822.4109618086" >
		</node>
		<node id="2449713767" x="1.3223513781848896E7" y="3770570.23943837" >
		</node>
		<node id="2449713775" x="1.3223521262518678E7" y="3770861.4606531216" >
		</node>
		<node id="2449713779" x="1.3223279020174764E7" y="3770853.7505291067" >
		</node>
		<node id="2449713780" x="1.3223299814655645E7" y="3771104.561955412" >
		</node>
		<node id="2449713781" x="1.3223284062947696E7" y="3770914.5384894726" >
		</node>
		<node id="2449713782" x="1.3223164650529925E7" y="3770921.618179004" >
		</node>
		<node id="2449927684" x="1.3223600744635105E7" y="3770831.9205284975" >
		</node>
		<node id="2449927686" x="1.3223545596959367E7" y="3770852.6603416144" >
		</node>
		<node id="2449927690" x="1.3223612177146811E7" y="3771105.8623268004" >
		</node>
		<node id="2449927694" x="1.3223622552123353E7" y="3770942.594574894" >
		</node>
		<node id="2449927696" x="1.322360368346966E7" y="3770942.594574894" >
		</node>
		<node id="2449927702" x="1.3223643535847368E7" y="3771002.778776861" >
		</node>
		<node id="2449927704" x="1.3223603071212463E7" y="3770899.5647628237" >
		</node>
		<node id="2449927708" x="1.3223613735619681E7" y="3770942.423821367" >
		</node>
		<node id="2449927711" x="1.3223740094373679E7" y="3770937.156732994" >
		</node>
		<node id="2449927713" x="1.3223703848747477E7" y="3770938.943076924" >
		</node>
		<node id="2449927725" x="1.3223494712820122E7" y="3770878.08931902" >
		</node>
		<node id="2449927731" x="1.322360575401219E7" y="3771004.8672345025" >
		</node>
		<node id="2449927733" x="1.3223514549953384E7" y="3770855.116547309" >
		</node>
		<node id="2450052103" x="1.3223588388171626E7" y="3770703.686494059" >
		</node>
		<node id="2450052104" x="1.322357940468872E7" y="3770696.383644415" >
		</node>
		<node id="2450052105" x="1.322358738629621E7" y="3770687.9249536134" >
		</node>
		<node id="2450052106" x="1.3223595813181665E7" y="3770695.3197404277" >
		</node>
		<node id="2450052111" x="1.3223520683657328E7" y="3770673.1353936247" >
		</node>
		<node id="2450052112" x="1.3223404176678263E7" y="3770684.418013671" >
		</node>
		<node id="2450052114" x="1.3223419995177904E7" y="3770841.824146" >
		</node>
		<node id="2450172906" x="1.3223516709551508E7" y="3770604.4154034005" >
		</node>
		<node id="2451230781" x="1.3223889640977612E7" y="3770417.9723786963" >
		</node>
		<node id="2451230789" x="1.322363451896861E7" y="3769905.259123718" >
		</node>
		<node id="2452364610" x="1.3223296764501596E7" y="3771066.9825965497" >
		</node>
		<node id="2452364612" x="1.322347589982618E7" y="3771136.7691750885" >
		</node>
		<node id="2452391778" x="1.3223641932846697E7" y="3769884.9280911433" >
		</node>
		<node id="2452391779" x="1.3223690846630953E7" y="3769960.1583369896" >
		</node>
		<node id="2452391780" x="1.3223793004527654E7" y="3770162.289419884" >
		</node>
		<node id="2452391781" x="1.322366900574686E7" y="3770169.618213064" >
		</node>
		<node id="2496987648" x="1.3223638248171555E7" y="3770641.3759915056" >
		</node>
		<node id="2496987649" x="1.3223591327006185E7" y="3770763.370381237" >
		</node>
		<node id="2497009555" x="1.3223463665814143E7" y="3770905.0419922513" >
		</node>
		<node id="2519404092" x="1.3223698928425984E7" y="3770826.08869389" >
		</node>
		<node id="2805288932" x="1.3224258987916118E7" y="3770516.3356541623" >
		</node>
		<node id="305197308" x="1.3222452461823676E7" y="3771261.5663991105" >
		</node>
		<node id="305197310" x="1.3222739298755601E7" y="3771230.7905818415" >
		</node>
		<node id="305197314" x="1.3223749801433278E7" y="3771090.0345835947" >
		</node>
		<node id="305370491" x="1.322404829351589E7" y="3770977.8092579665" >
		</node>
		<node id="305370492" x="1.3223962443924593E7" y="3771005.8260862445" >
		</node>
		<node id="305371888" x="1.3222968249552315E7" y="3769856.5855333516" >
		</node>
		<node id="305372994" x="1.322276781880914E7" y="3770436.084610499" >
		</node>
		<node id="305379563" x="1.3223633350113958E7" y="3771273.0991413775" >
		</node>
		<node id="305379565" x="1.3223573582679352E7" y="3771178.8278358122" >
		</node>
		<node id="3239093502" x="1.3223165585613647E7" y="3771192.8824491953" >
		</node>
		<node id="428787925" x="1.3222747146779703E7" y="3770146.883207922" >
		</node>
		<node id="428787926" x="1.3223019322934693E7" y="3770108.7683506687" >
		</node>
		<node id="428787928" x="1.3223652396878833E7" y="3769969.0761993704" >
		</node>
		<node id="428787929" x="1.322375097028793E7" y="3769948.101502633" >
		</node>
		<node id="4415897106" x="1.3223860608854413E7" y="3770607.475746288" >
		</node>
		<node id="4415897107" x="1.3223843142826308E7" y="3770503.766019951" >
		</node>
		<node id="4415897108" x="1.322377821016733E7" y="3770163.0249258056" >
		</node>
		<node id="4415897109" x="1.322373391614194E7" y="3769951.2930164305" >
		</node>
		<node id="4415897110" x="1.322368435670464E7" y="3769702.449419681" >
		</node>
		<node id="4415897113" x="1.322394760503647E7" y="3771031.0452280412" >
		</node>
		<node id="4415897114" x="1.3223966551613802E7" y="3771025.1607568874" >
		</node>
		<node id="4415897115" x="1.3223942851694211E7" y="3771010.410186728" >
		</node>
		<node id="4721463890" x="1.3224061852229867E7" y="3769833.2207039427" >
		</node>
		<node id="4721463891" x="1.3224064913515866E7" y="3769845.3168241205" >
		</node>
		<node id="4725592976" x="1.3223515985974815E7" y="3770596.022449871" >
		</node>
		<node id="4725592977" x="1.3223515618620494E7" y="3770592.660016298" >
		</node>
		<node id="5907873126" x="1.3223826689805567E7" y="3771484.2632448156" >
		</node>
		<node id="6408780393" x="1.3223721815713292E7" y="3769890.549329269" >
		</node>
		<node id="6408780394" x="1.3223717106898831E7" y="3769866.8954921905" >
		</node>
		<node id="6408780397" x="1.3223712453744117E7" y="3770166.636785905" >
		</node>
		<node id="6408780398" x="1.3223739727019358E7" y="3770164.942495033" >
		</node>
		<node id="6408780399" x="1.322379123454775E7" y="3770514.1816093307" >
		</node>
		<node id="6408780400" x="1.3223824686054733E7" y="3770507.3911168664" >
		</node>
		<node id="6408780401" x="1.3223887425719745E7" y="3771048.987628852" >
		</node>
		<node id="6408780402" x="1.322392292550536E7" y="3771038.4008210353" >
		</node>
		<node id="666940364" x="1.3222419121636182E7" y="3770194.20516478" >
		</node>
		<node id="666941377" x="1.3223858170957563E7" y="3770500.8107787035" >
		</node>
		<node id="666941380" x="1.3223734472739397E7" y="3770823.8557849936" >
		</node>
		<node id="666941386" x="1.322369742561286E7" y="3770533.581161161" >
		</node>
		<node id="666941392" x="1.3223739459852582E7" y="3770918.347598346" >
		</node>
		<node id="666952324" x="1.3222416193933574E7" y="3770670.810571022" >
		</node>
		<node id="772391247" x="1.3222768431066342E7" y="3770683.4985913876" >
		</node>
		<node id="772391248" x="1.3223133336357163E7" y="3770642.2428723364" >
		</node>
		<node id="772391467" x="1.3223641242665855E7" y="3769971.755499526" >
		</node>
		<node id="778890588" x="1.3223993223763796E7" y="3769121.1077071587" >
		</node>
	</nodes>

<!-- ====================================================================== -->

	<links capperiod="01:00:00" effectivecellsize="7.5" effectivelanewidth="3.75">
		<link id="100944827_1" from="1166138226" to="305379563" length="122.03788150917504" freespeed="8.333333333333334" capacity="600.0" permlanes="1.0" oneway="1" modes="car" >
		</link>
		<link id="105242464_0" from="1212800598" to="1212800599" length="204.99880356786883" freespeed="4.166666666666667" capacity="300.0" permlanes="1.0" oneway="1" modes="car" >
		</link>
		<link id="105242464_0_r" from="1212800599" to="1212800598" length="204.99880356786883" freespeed="4.166666666666667" capacity="300.0" permlanes="1.0" oneway="1" modes="car" >
		</link>
		<link id="106972917_0" from="305197314" to="2449927711" length="129.9915350753293" freespeed="8.333333333333334" capacity="600.0" permlanes="1.0" oneway="1" modes="car" >
		</link>
		<link id="106972917_1" from="2449927711" to="666941392" length="15.950019159628441" freespeed="8.333333333333334" capacity="600.0" permlanes="1.0" oneway="1" modes="car" >
		</link>
		<link id="155900473_0" from="1067108926" to="305197310" length="194.00278503903982" freespeed="12.5" capacity="1200.0" permlanes="2.0" oneway="1" modes="car" >
		</link>
		<link id="155900473_0_r" from="305197310" to="1067108926" length="194.00278503903982" freespeed="12.5" capacity="1200.0" permlanes="2.0" oneway="1" modes="car" >
		</link>
		<link id="162311599_0" from="305197314" to="6408780401" length="121.71396007689248" freespeed="22.22222222222222" capacity="3000.0" permlanes="2.0" oneway="1" modes="car" >
		</link>
		<link id="162311599_0_r" from="6408780401" to="305197314" length="121.71396007689248" freespeed="22.22222222222222" capacity="3000.0" permlanes="2.0" oneway="1" modes="car" >
		</link>
		<link id="162311601_0" from="305379565" to="305197314" length="170.00143311676186" freespeed="22.22222222222222" capacity="3000.0" permlanes="2.0" oneway="1" modes="car" >
		</link>
		<link id="162311601_0_r" from="305197314" to="305379565" length="170.00143311676186" freespeed="22.22222222222222" capacity="3000.0" permlanes="2.0" oneway="1" modes="car" >
		</link>
		<link id="162311604_0" from="666941386" to="2449713767" length="158.71567809932623" freespeed="12.5" capacity="1200.0" permlanes="2.0" oneway="1" modes="car" >
		</link>
		<link id="162311604_0_r" from="2449713767" to="666941386" length="158.71567809932623" freespeed="12.5" capacity="1200.0" permlanes="2.0" oneway="1" modes="car" >
		</link>
		<link id="162311604_1" from="2449713767" to="1155842378" length="42.33644625893713" freespeed="12.5" capacity="1200.0" permlanes="2.0" oneway="1" modes="car" >
		</link>
		<link id="162311604_1_r" from="1155842378" to="2449713767" length="42.33644625893713" freespeed="12.5" capacity="1200.0" permlanes="2.0" oneway="1" modes="car" >
		</link>
		<link id="162311604_2" from="1155842378" to="772391248" length="285.8347733369048" freespeed="12.5" capacity="1200.0" permlanes="2.0" oneway="1" modes="car" >
		</link>
		<link id="162311604_2_r" from="772391248" to="1155842378" length="285.8347733369048" freespeed="12.5" capacity="1200.0" permlanes="2.0" oneway="1" modes="car" >
		</link>
		<link id="162311606_0" from="666941386" to="1155842407" length="148.97426258673815" freespeed="8.333333333333334" capacity="600.0" permlanes="1.0" oneway="1" modes="car" >
		</link>
		<link id="162311606_1" from="1155842407" to="1155842395" length="127.8760728773278" freespeed="8.333333333333334" capacity="600.0" permlanes="1.0" oneway="1" modes="car" >
		</link>
		<link id="162311606_2" from="1155842395" to="2452391781" length="32.76151993766309" freespeed="8.333333333333334" capacity="600.0" permlanes="1.0" oneway="1" modes="car" >
		</link>
		<link id="162311606_3" from="2452391781" to="1155842361" length="110.78491455268491" freespeed="8.333333333333334" capacity="600.0" permlanes="1.0" oneway="1" modes="car" >
		</link>
		<link id="162311606_4" from="1155842361" to="772391467" length="58.62001920657195" freespeed="8.333333333333334" capacity="600.0" permlanes="1.0" oneway="1" modes="car" >
		</link>
		<link id="187816228_0" from="1984595800" to="1067108901" length="353.18643066085826" freespeed="4.166666666666667" capacity="300.0" permlanes="1.0" oneway="1" modes="car" >
		</link>
		<link id="187816228_0_r" from="1067108901" to="1984595800" length="353.18643066085826" freespeed="4.166666666666667" capacity="300.0" permlanes="1.0" oneway="1" modes="car" >
		</link>
		<link id="192105382_0" from="2026696513" to="2026696512" length="135.03934193239627" freespeed="4.166666666666667" capacity="300.0" permlanes="1.0" oneway="1" modes="car" >
		</link>
		<link id="192105382_0_r" from="2026696512" to="2026696513" length="135.03934193239627" freespeed="4.166666666666667" capacity="300.0" permlanes="1.0" oneway="1" modes="car" >
		</link>
		<link id="192105384_0" from="2026696497" to="2026696513" length="108.89255905371019" freespeed="4.166666666666667" capacity="300.0" permlanes="1.0" oneway="1" modes="car" >
		</link>
		<link id="192105384_0_r" from="2026696513" to="2026696497" length="108.89255905371019" freespeed="4.166666666666667" capacity="300.0" permlanes="1.0" oneway="1" modes="car" >
		</link>
		<link id="192105384_1" from="2026696513" to="2026696527" length="114.60410527978703" freespeed="4.166666666666667" capacity="300.0" permlanes="1.0" oneway="1" modes="car" >
		</link>
		<link id="192105384_1_r" from="2026696527" to="2026696513" length="114.60410527978703" freespeed="4.166666666666667" capacity="300.0" permlanes="1.0" oneway="1" modes="car" >
		</link>
		<link id="192105384_2" from="2026696527" to="2026696531" length="179.09580412064497" freespeed="4.166666666666667" capacity="300.0" permlanes="1.0" oneway="1" modes="car" >
		</link>
		<link id="192105384_2_r" from="2026696531" to="2026696527" length="179.09580412064497" freespeed="4.166666666666667" capacity="300.0" permlanes="1.0" oneway="1" modes="car" >
		</link>
		<link id="236879445_0" from="666941380" to="2519404092" length="30.18384240420826" freespeed="4.166666666666667" capacity="300.0" permlanes="1.0" oneway="1" modes="car" >
		</link>
		<link id="236879445_0_r" from="2519404092" to="666941380" length="30.18384240420826" freespeed="4.166666666666667" capacity="300.0" permlanes="1.0" oneway="1" modes="car" >
		</link>
		<link id="236879445_1" from="2519404092" to="2449059364" length="40.42180978610086" freespeed="4.166666666666667" capacity="300.0" permlanes="1.0" oneway="1" modes="car" >
		</link>
		<link id="236879445_1_r" from="2449059364" to="2519404092" length="40.42180978610086" freespeed="4.166666666666667" capacity="300.0" permlanes="1.0" oneway="1" modes="car" >
		</link>
		<link id="236879446_0" from="2449713779" to="2450052114" length="119.9054746163607" freespeed="4.166666666666667" capacity="300.0" permlanes="1.0" oneway="1" modes="car" >
		</link>
		<link id="236879446_0_r" from="2450052114" to="2449713779" length="119.9054746163607" freespeed="4.166666666666667" capacity="300.0" permlanes="1.0" oneway="1" modes="car" >
		</link>
		<link id="236879446_1" from="2450052114" to="2448395562" length="76.42884163972143" freespeed="4.166666666666667" capacity="300.0" permlanes="1.0" oneway="1" modes="car" >
		</link>
		<link id="236879446_1_r" from="2448395562" to="2450052114" length="76.42884163972143" freespeed="4.166666666666667" capacity="300.0" permlanes="1.0" oneway="1" modes="car" >
		</link>
		<link id="236946069_0" from="2449059351" to="2449059360" length="55.478840505314174" freespeed="4.166666666666667" capacity="300.0" permlanes="1.0" oneway="1" modes="car" >
		</link>
		<link id="236946069_0_r" from="2449059360" to="2449059351" length="55.478840505314174" freespeed="4.166666666666667" capacity="300.0" permlanes="1.0" oneway="1" modes="car" >
		</link>
		<link id="236946069_1" from="2449059360" to="2496987648" length="45.503523140237554" freespeed="4.166666666666667" capacity="300.0" permlanes="1.0" oneway="1" modes="car" >
		</link>
		<link id="236946069_1_r" from="2496987648" to="2449059360" length="45.503523140237554" freespeed="4.166666666666667" capacity="300.0" permlanes="1.0" oneway="1" modes="car" >
		</link>
		<link id="236946069_2" from="2496987648" to="2449059352" length="45.755363009486594" freespeed="4.166666666666667" capacity="300.0" permlanes="1.0" oneway="1" modes="car" >
		</link>
		<link id="236946069_2_r" from="2449059352" to="2496987648" length="45.755363009486594" freespeed="4.166666666666667" capacity="300.0" permlanes="1.0" oneway="1" modes="car" >
		</link>
		<link id="236946071_0" from="2449059357" to="2450052104" length="48.72979674881453" freespeed="4.166666666666667" capacity="300.0" permlanes="1.0" oneway="1" modes="car" >
		</link>
		<link id="236946071_0_r" from="2450052104" to="2449059357" length="48.72979674881453" freespeed="4.166666666666667" capacity="300.0" permlanes="1.0" oneway="1" modes="car" >
		</link>
		<link id="236946073_0" from="2449059361" to="2496987649" length="55.96726187356602" freespeed="4.166666666666667" capacity="300.0" permlanes="1.0" oneway="1" modes="car" >
		</link>
		<link id="236946073_0_r" from="2496987649" to="2449059361" length="55.96726187356602" freespeed="4.166666666666667" capacity="300.0" permlanes="1.0" oneway="1" modes="car" >
		</link>
		<link id="236946073_1" from="2496987649" to="2449059362" length="46.87689551847251" freespeed="4.166666666666667" capacity="300.0" permlanes="1.0" oneway="1" modes="car" >
		</link>
		<link id="236946073_1_r" from="2449059362" to="2496987649" length="46.87689551847251" freespeed="4.166666666666667" capacity="300.0" permlanes="1.0" oneway="1" modes="car" >
		</link>
		<link id="236946074_0" from="2449059363" to="2449059359" length="41.885793854195164" freespeed="4.166666666666667" capacity="300.0" permlanes="1.0" oneway="1" modes="car" >
		</link>
		<link id="236946074_0_r" from="2449059359" to="2449059363" length="41.885793854195164" freespeed="4.166666666666667" capacity="300.0" permlanes="1.0" oneway="1" modes="car" >
		</link>
		<link id="236946074_1" from="2449059359" to="2449059362" length="57.47677281430093" freespeed="4.166666666666667" capacity="300.0" permlanes="1.0" oneway="1" modes="car" >
		</link>
		<link id="236946074_1_r" from="2449059362" to="2449059359" length="57.47677281430093" freespeed="4.166666666666667" capacity="300.0" permlanes="1.0" oneway="1" modes="car" >
		</link>
		<link id="236946074_2" from="2449059362" to="2449059364" length="59.17455923738545" freespeed="4.166666666666667" capacity="300.0" permlanes="1.0" oneway="1" modes="car" >
		</link>
		<link id="236946074_2_r" from="2449059364" to="2449059362" length="59.17455923738545" freespeed="4.166666666666667" capacity="300.0" permlanes="1.0" oneway="1" modes="car" >
		</link>
		<link id="237022770_0" from="2449713763" to="2449059361" length="46.09152404992696" freespeed="4.166666666666667" capacity="300.0" permlanes="1.0" oneway="1" modes="car" >
		</link>
		<link id="237022770_0_r" from="2449059361" to="2449713763" length="46.09152404992696" freespeed="4.166666666666667" capacity="300.0" permlanes="1.0" oneway="1" modes="car" >
		</link>
		<link id="237022770_1" from="2449059361" to="2449059357" length="57.25717655351652" freespeed="4.166666666666667" capacity="300.0" permlanes="1.0" oneway="1" modes="car" >
		</link>
		<link id="237022770_1_r" from="2449059357" to="2449059361" length="57.25717655351652" freespeed="4.166666666666667" capacity="300.0" permlanes="1.0" oneway="1" modes="car" >
		</link>
		<link id="237022770_2" from="2449059357" to="2450052111" length="23.317404326486056" freespeed="4.166666666666667" capacity="300.0" permlanes="1.0" oneway="1" modes="car" >
		</link>
		<link id="237022770_2_r" from="2450052111" to="2449059357" length="23.317404326486056" freespeed="4.166666666666667" capacity="300.0" permlanes="1.0" oneway="1" modes="car" >
		</link>
		<link id="237022770_3" from="2450052111" to="2449059351" length="18.996697048060746" freespeed="4.166666666666667" capacity="300.0" permlanes="1.0" oneway="1" modes="car" >
		</link>
		<link id="237022770_3_r" from="2449059351" to="2450052111" length="18.996697048060746" freespeed="4.166666666666667" capacity="300.0" permlanes="1.0" oneway="1" modes="car" >
		</link>
		<link id="237022770_4" from="2449059351" to="2450172906" length="39.34918157616238" freespeed="4.166666666666667" capacity="300.0" permlanes="1.0" oneway="1" modes="car" >
		</link>
		<link id="237022770_4_r" from="2450172906" to="2449059351" length="39.34918157616238" freespeed="4.166666666666667" capacity="300.0" permlanes="1.0" oneway="1" modes="car" >
		</link>
		<link id="237022770_5" from="2450172906" to="4725592976" length="7.139701660540731" freespeed="4.166666666666667" capacity="300.0" permlanes="1.0" oneway="1" modes="car" >
		</link>
		<link id="237022770_5_r" from="4725592976" to="2450172906" length="7.139701660540731" freespeed="4.166666666666667" capacity="300.0" permlanes="1.0" oneway="1" modes="car" >
		</link>
		<link id="237022771_0" from="2449713775" to="2449927686" length="23.9003125804753" freespeed="4.166666666666667" capacity="300.0" permlanes="1.0" oneway="1" modes="car" >
		</link>
		<link id="237022771_0_r" from="2449927686" to="2449713775" length="23.9003125804753" freespeed="4.166666666666667" capacity="300.0" permlanes="1.0" oneway="1" modes="car" >
		</link>
		<link id="237022771_1" from="2449927686" to="2448395560" length="15.939924425865167" freespeed="4.166666666666667" capacity="300.0" permlanes="1.0" oneway="1" modes="car" >
		</link>
		<link id="237022771_1_r" from="2448395560" to="2449927686" length="15.939924425865167" freespeed="4.166666666666667" capacity="300.0" permlanes="1.0" oneway="1" modes="car" >
		</link>
		<link id="237022771_2" from="2448395560" to="2449713763" length="21.615130046743893" freespeed="4.166666666666667" capacity="300.0" permlanes="1.0" oneway="1" modes="car" >
		</link>
		<link id="237022771_2_r" from="2449713763" to="2448395560" length="21.615130046743893" freespeed="4.166666666666667" capacity="300.0" permlanes="1.0" oneway="1" modes="car" >
		</link>
		<link id="237022771_3" from="2449713763" to="2448395562" length="20.38906896744147" freespeed="4.166666666666667" capacity="300.0" permlanes="1.0" oneway="1" modes="car" >
		</link>
		<link id="237022771_3_r" from="2448395562" to="2449713763" length="20.38906896744147" freespeed="4.166666666666667" capacity="300.0" permlanes="1.0" oneway="1" modes="car" >
		</link>
		<link id="237022771_4" from="2448395562" to="2449927733" length="18.04304408453286" freespeed="4.166666666666667" capacity="300.0" permlanes="1.0" oneway="1" modes="car" >
		</link>
		<link id="237022771_4_r" from="2449927733" to="2448395562" length="18.04304408453286" freespeed="4.166666666666667" capacity="300.0" permlanes="1.0" oneway="1" modes="car" >
		</link>
		<link id="237022771_5" from="2449927733" to="2449713775" length="7.827773512657986" freespeed="4.166666666666667" capacity="300.0" permlanes="1.0" oneway="1" modes="car" >
		</link>
		<link id="237022771_5_r" from="2449713775" to="2449927733" length="7.827773512657986" freespeed="4.166666666666667" capacity="300.0" permlanes="1.0" oneway="1" modes="car" >
		</link>
		<link id="237022772_0" from="2449059364" to="2449927684" length="42.93786979888392" freespeed="4.166666666666667" capacity="300.0" permlanes="1.0" oneway="1" modes="car" >
		</link>
		<link id="237022772_0_r" from="2449927684" to="2449059364" length="42.93786979888392" freespeed="4.166666666666667" capacity="300.0" permlanes="1.0" oneway="1" modes="car" >
		</link>
		<link id="237022772_1" from="2449927684" to="2448395560" length="44.780939472309115" freespeed="4.166666666666667" capacity="300.0" permlanes="1.0" oneway="1" modes="car" >
		</link>
		<link id="237022772_1_r" from="2448395560" to="2449927684" length="44.780939472309115" freespeed="4.166666666666667" capacity="300.0" permlanes="1.0" oneway="1" modes="car" >
		</link>
		<link id="237022773_0" from="666941392" to="666941380" length="80.19484130166487" freespeed="8.333333333333334" capacity="600.0" permlanes="1.0" oneway="1" modes="car" >
		</link>
		<link id="237022773_1" from="666941380" to="1155845059" length="150.26071951468487" freespeed="8.333333333333334" capacity="600.0" permlanes="1.0" oneway="1" modes="car" >
		</link>
		<link id="237022773_2" from="1155845059" to="666941386" length="98.09817742705444" freespeed="8.333333333333334" capacity="600.0" permlanes="1.0" oneway="1" modes="car" >
		</link>
		<link id="237022774_0" from="1155842426" to="1155842378" length="136.02902227318106" freespeed="4.166666666666667" capacity="300.0" permlanes="1.0" oneway="1" modes="car" >
		</link>
		<link id="237022774_0_r" from="1155842378" to="1155842426" length="136.02902227318106" freespeed="4.166666666666667" capacity="300.0" permlanes="1.0" oneway="1" modes="car" >
		</link>
		<link id="237022775_0" from="2449713779" to="2449713781" length="51.695627622878966" freespeed="4.166666666666667" capacity="300.0" permlanes="1.0" oneway="1" modes="car" >
		</link>