<?xml version="1.0" encoding="utf-8"?>
<!DOCTYPE network
  SYSTEM 'http://www.matsim.org/files/dtd/network_v2.dtd'>
	<network>
		


		<!-- ====================================================================== -->
		

	
		<nodes>
			
		
			<node id="1038065159" x="1.3222787845185539E7" y="3769966.252427796">
		</node>
			
		
			<node id="1038065160" x="1.3222617047690814E7" y="3769546.3846783526">
		</node>
			
		
			<node id="1038857321" x="1.3224073974922415E7" y="3769883.3389098146">
		</node>
			
		
			<node id="1038857363" x="1.3223615717106618E7" y="3769720.8889120147">
		</node>
			
		
			<node id="1038859151" x="1.3223806440790193E7" y="3771706.2286177706">
		</node>
			
		
			<node id="1058326193" x="1.3224576248464875E7" y="3769772.871621736">
		</node>
			
		
			<node id="1058327569" x="1.322321895217753E7" y="3769806.7957801637">
		</node>
			
		
			<node id="1067108841" x="1.322323744234495E7" y="3769914.334550528">
		</node>
			
		
			<node id="1067108846" x="1.322299080288115E7" y="3769967.9598244866">
		</node>
			
		
			<node id="1067108867" x="1.3222291137617618E7" y="3770426.864312146">
		</node>
			
		
			<node id="1067108901" x="1.3222749439961212E7" y="3771027.564457928">
		</node>
			
		
			<node id="1067108913" x="1.3223635732351063E7" y="3769827.2317499267">
		</node>
			
		
			<node id="1067108926" x="1.3222715431856776E7" y="3771458.189347463">
		</node>
			
		
			<node id="1067108936" x="1.322241877654576E7" y="3771019.144938906">
		</node>
			
		
			<node id="1067108939" x="1.3223087995928563E7" y="3770403.3013595957">
		</node>
			
		
			<node id="1067116363" x="1.3222769043323541E7" y="3770518.9625386274">
		</node>
			
		
			<node id="1067116364" x="1.3222619162761139E7" y="3770678.3760970803">
		</node>
			
		
			<node id="1120932551" x="1.3222926582666911E7" y="3769643.2698725504">
		</node>
			
		
			<node id="1155833082" x="1.3222419333143216E7" y="3770072.9651868646">
		</node>
			
		
			<node id="1155833083" x="1.3222712782452894E7" y="3769787.2397979433">
		</node>
			
		
			<node id="1155833085" x="1.3222419455594655E7" y="3769835.0462848186">
		</node>
			
		
			<node id="1155833090" x="1.3222764067342304E7" y="3770050.571846254">
		</node>
			
		
			<node id="1155842356" x="1.3223460459812809E7" y="3770093.992637347">
		</node>
			
		
			<node id="1155842358" x="1.3223353860268423E7" y="3770126.8407145035">
		</node>
			
		
			<node id="1155842361" x="1.3223648355981316E7" y="3770040.550675673">
		</node>
			
		
			<node id="1155842363" x="1.3223513303175088E7" y="3770252.244755113">
		</node>
			
		
			<node id="1155842371" x="1.3223047186203238E7" y="3770228.28812174">
		</node>
			
		
			<node id="1155842372" x="1.3223404232338008E7" y="3770286.0651932834">
		</node>
			
		
			<node id="1155842373" x="1.3223419327260958E7" y="3770338.877803772">
		</node>
			
		
			<node id="1155842378" x="1.3223464600897865E7" y="3770578.9607361173">
		</node>
			
		
			<node id="1155842395" x="1.3223675117186906E7" y="3770207.78579963">
		</node>
			
		
			<node id="1155842401" x="1.322329405943797E7" y="3770047.0125566665">
		</node>
			
		
			<node id="1155842407" x="1.3223689221366387E7" y="3770358.001253418">
		</node>
			
		
			<node id="1155842412" x="1.322355412403236E7" y="3770386.2136508985">
		</node>
			
		
			<node id="1155842416" x="1.322326201055657E7" y="3769908.989110173">
		</node>
			
		
			<node id="1155842421" x="1.32233190840595E7" y="3770041.378111462">
		</node>
			
		
			<node id="1155842426" x="1.3223441279464543E7" y="3770420.1658092313">
		</node>
			
		
			<node id="1155845059" x="1.3223712431480216E7" y="3770648.324174455">
		</node>
			
		
			<node id="1155845083" x="1.3223963991265513E7" y="3770563.974293136">
		</node>
			
		
			<node id="1155845086" x="1.3223806663429173E7" y="3770231.873733235">
		</node>
			
		
			<node id="1155845098" x="1.3224059714895645E7" y="3770187.1521718823">
		</node>
			
		
			<node id="1155845101" x="1.3223875202839658E7" y="3770603.4565836876">
		</node>
			
		
			<node id="1155845109" x="1.3223940992658716E7" y="3770428.414162368">
		</node>
			
		
			<node id="1155845125" x="1.322384361036817E7" y="3770428.4666996696">
		</node>
			
		
			<node id="1155849840" x="1.322425506947004E7" y="3769657.1650884626">
		</node>
			
		
			<node id="1155849850" x="1.3224305552859114E7" y="3769829.517008345">
		</node>
			
		
			<node id="1166138226" x="1.322376950498315E7" y="3771226.2195324763">
		</node>
			
		
			<node id="1212800598" x="1.3222927617938176E7" y="3770424.4475969323">
		</node>
			
		
			<node id="1212800599" x="1.3222957529485352E7" y="3770664.466565858">
		</node>
			
		
			<node id="1984595800" x="1.3223164761849413E7" y="3770993.25594002">
		</node>
			
		
			<node id="2026696497" x="1.3222588750276253E7" y="3770174.1888605403">
		</node>
			
		
			<node id="2026696512" x="1.3222758601555306E7" y="3770299.79040796">
		</node>
			
		
			<node id="2026696513" x="1.3222599292232031E7" y="3770302.2333664717">
		</node>
			
		
			<node id="2026696527" x="1.3222606594790628E7" y="3770437.227297541">
		</node>
			
		
			<node id="2026696531" x="1.3222662844529325E7" y="3770626.9279868836">
		</node>
			
		
			<node id="2448395560" x="1.3223547990328418E7" y="3770834.8889859347">
		</node>
			
		
			<node id="2448395562" x="1.3223509919062568E7" y="3770835.637667792">
		</node>
			
		
			<node id="2449059351" x="1.3223519470274879E7" y="3770650.754069254">
		</node>
			
		
			<node id="2449059352" x="1.3223692160200946E7" y="3770638.5389274107">
		</node>
			
		
			<node id="2449059357" x="1.3223522064019011E7" y="3770700.612992045">
		</node>
			
		
			<node id="2449059359" x="1.3223641832659157E7" y="3770691.773394496">
		</node>
			
		
			<node id="2449059360" x="1.322358474802428E7" y="3770645.881145586">
		</node>
			
		
			<node id="2449059361" x="1.3223525459263481E7" y="3770768.085736187">
		</node>
			
		
			<node id="2449059362" x="1.322364649694582E7" y="3770759.429974615">
		</node>
			
		
			<node id="2449059363" x="1.322363829269935E7" y="3770642.4792943867">
		</node>
			
		
			<node id="2449059364" x="1.3223651328211723E7" y="3770829.0834194147">
		</node>
			
		
			<node id="2449713763" x="1.3223527986215923E7" y="3770822.4109618086">
		</node>
			
		
			<node id="2449713767" x="1.3223513781848896E7" y="3770570.23943837">
		</node>
			
		
			<node id="2449713775" x="1.3223521262518678E7" y="3770861.4606531216">
		</node>
			
		
			<node id="2449713779" x="1.3223279020174764E7" y="3770853.7505291067">
		</node>
			
		
			<node id="2449713780" x="1.3223299814655645E7" y="3771104.561955412">
		</node>
			
		
			<node id="2449713781" x="1.3223284062947696E7" y="3770914.5384894726">
		</node>
			
		
			<node id="2449713782" x="1.3223164650529925E7" y="3770921.618179004">
		</node>
			
		
			<node id="2449927684" x="1.3223600744635105E7" y="3770831.9205284975">
		</node>
			
		
			<node id="2449927686" x="1.3223545596959367E7" y="3770852.6603416144">
		</node>
			
		
			<node id="2449927690" x="1.3223612177146811E7" y="3771105.8623268004">
		</node>
			
		
			<node id="2449927694" x="1.3223622552123353E7" y="3770942.594574894">
		</node>
			
		
			<node id="2449927696" x="1.322360368346966E7" y="3770942.594574894">
		</node>
			
		
			<node id="2449927702" x="1.3223643535847368E7" y="3771002.778776861">
		</node>
			
		
			<node id="2449927704" x="1.3223603071212463E7" y="3770899.5647628237">
		</node>
			
		
			<node id="2449927708" x="1.3223613735619681E7" y="3770942.423821367">
		</node>
			
		
			<node id="2449927711" x="1.3223740094373679E7" y="3770937.156732994">
		</node>
			
		
			<node id="2449927713" x="1.3223703848747477E7" y="3770938.943076924">
		</node>
			
		
			<node id="2449927725" x="1.3223494712820122E7" y="3770878.08931902">
		</node>
			
		
			<node id="2449927731" x="1.322360575401219E7" y="3771004.8672345025">
		</node>
			
		
			<node id="2449927733" x="1.3223514549953384E7" y="3770855.116547309">
		</node>
			
		
			<node id="2450052103" x="1.3223588388171626E7" y="3770703.686494059">
		</node>
			
		
			<node id="2450052104" x="1.322357940468872E7" y="3770696.383644415">
		</node>
			
		
			<node id="2450052105" x="1.322358738629621E7" y="3770687.9249536134">
		</node>
			
		
			<node id="2450052106" x="1.3223595813181665E7" y="3770695.3197404277">
		</node>
			
		
			<node id="2450052111" x="1.3223520683657328E7" y="3770673.1353936247">
		</node>
			
		
			<node id="2450052112" x="1.3223404176678263E7" y="3770684.418013671">
		</node>
			
		
			<node id="2450052114" x="1.3223419995177904E7" y="3770841.824146">
		</node>
			
		
			<node id="2450172906" x="1.3223516709551508E7" y="3770604.4154034005">
		</node>
			
		
			<node id="2451230781" x="1.3223889640977612E7" y="3770417.9723786963">
		</node>
			
		
			<node id="2451230789" x="1.322363451896861E7" y="3769905.259123718">
		</node>
			
		
			<node id="2452364610" x="1.3223296764501596E7" y="3771066.9825965497">
		</node>
			
		
			<node id="2452364612" x="1.322347589982618E7" y="3771136.7691750885">
		</node>
			
		
			<node id="2452391778" x="1.3223641932846697E7" y="3769884.9280911433">
		</node>
			
		
			<node id="2452391779" x="1.3223690846630953E7" y="3769960.1583369896">
		</node>
			
		
			<node id="2452391780" x="1.3223793004527654E7" y="3770162.289419884">
		</node>
			
		
			<node id="2452391781" x="1.322366900574686E7" y="3770169.618213064">
		</node>
			
		
			<node id="2496987648" x="1.3223638248171555E7" y="3770641.3759915056">
		</node>
			
		
			<node id="2496987649" x="1.3223591327006185E7" y="3770763.370381237">
		</node>
			
		
			<node id="2497009555" x="1.3223463665814143E7" y="3770905.0419922513">
		</node>
			
		
			<node id="2519404092" x="1.3223698928425984E7" y="3770826.08869389">
		</node>
			
		
			<node id="2805288932" x="1.3224258987916118E7" y="3770516.3356541623">
		</node>
			
		
			<node id="305197308" x="1.3222452461823676E7" y="3771261.5663991105">
		</node>
			
		
			<node id="305197310" x="1.3222739298755601E7" y="3771230.7905818415">
		</node>
			
		
			<node id="305197314" x="1.3223749801433278E7" y="3771090.0345835947">
		</node>
			
		
			<node id="305370491" x="1.322404829351589E7" y="3770977.8092579665">
		</node>
			
		
			<node id="305370492" x="1.3223962443924593E7" y="3771005.8260862445">
		</node>
			
		
			<node id="305371888" x="1.3222968249552315E7" y="3769856.5855333516">
		</node>
			
		
			<node id="305372994" x="1.322276781880914E7" y="3770436.084610499">
		</node>
			
		
			<node id="305379563" x="1.3223633350113958E7" y="3771273.0991413775">
		</node>
			
		
			<node id="305379565" x="1.3223573582679352E7" y="3771178.8278358122">
		</node>
			
		
			<node id="3239093502" x="1.3223165585613647E7" y="3771192.8824491953">
		</node>
			
		
			<node id="428787925" x="1.3222747146779703E7" y="3770146.883207922">
		</node>
			
		
			<node id="428787926" x="1.3223019322934693E7" y="3770108.7683506687">
		</node>
			
		
			<node id="428787928" x="1.3223652396878833E7" y="3769969.0761993704">
		</node>
			
		
			<node id="428787929" x="1.322375097028793E7" y="3769948.101502633">
		</node>
			
		
			<node id="4415897106" x="1.3223860608854413E7" y="3770607.475746288">
		</node>
			
		
			<node id="4415897107" x="1.3223843142826308E7" y="3770503.766019951">
		</node>
			
		
			<node id="4415897108" x="1.322377821016733E7" y="3770163.0249258056">
		</node>
			
		
			<node id="4415897109" x="1.322373391614194E7" y="3769951.2930164305">
		</node>
			
		
			<node id="4415897110" x="1.322368435670464E7" y="3769702.449419681">
		</node>
			
		
			<node id="4415897113" x="1.322394760503647E7" y="3771031.0452280412">
		</node>
			
		
			<node id="4415897114" x="1.3223966551613802E7" y="3771025.1607568874">
		</node>
			
		
			<node id="4415897115" x="1.3223942851694211E7" y="3771010.410186728">
		</node>
			
		
			<node id="4721463890" x="1.3224061852229867E7" y="3769833.2207039427">
		</node>
			
		
			<node id="4721463891" x="1.3224064913515866E7" y="3769845.3168241205">
		</node>
			
		
			<node id="4725592976" x="1.3223515985974815E7" y="3770596.022449871">
		</node>
			
		
			<node id="4725592977" x="1.3223515618620494E7" y="3770592.660016298">
		</node>
			
		
			<node id="5907873126" x="1.3223826689805567E7" y="3771484.2632448156">
		</node>
			
		
			<node id="6408780393" x="1.3223721815713292E7" y="3769890.549329269">
		</node>
			
		
			<node id="6408780394" x="1.3223717106898831E7" y="3769866.8954921905">
		</node>
			
		
			<node id="6408780397" x="1.3223712453744117E7" y="3770166.636785905">
		</node>
			
		
			<node id="6408780398" x="1.3223739727019358E7" y="3770164.942495033">
		</node>
			
		
			<node id="6408780399" x="1.322379123454775E7" y="3770514.1816093307">
		</node>
			
		
			<node id="6408780400" x="1.3223824686054733E7" y="3770507.3911168664">
		</node>
			
		
			<node id="6408780401" x="1.3223887425719745E7" y="3771048.987628852">
		</node>
			
		
			<node id="6408780402" x="1.322392292550536E7" y="3771038.4008210353">
		</node>
			
		
			<node id="666940364" x="1.3222419121636182E7" y="3770194.20516478">
		</node>
			
		
			<node id="666941377" x="1.3223858170957563E7" y="3770500.8107787035">
		</node>
			
		
			<node id="666941380" x="1.3223734472739397E7" y="3770823.8557849936">
		</node>
			
		
			<node id="666941386" x="1.322369742561286E7" y="3770533.581161161">
		</node>
			
		
			<node id="666941392" x="1.3223739459852582E7" y="3770918.347598346">
		</node>
			
		
			<node id="666952324" x="1.3222416193933574E7" y="3770670.810571022">
		</node>
			
		
			<node id="772391247" x="1.3222768431066342E7" y="3770683.4985913876">
		</node>
			
		
			<node id="772391248" x="1.3223133336357163E7" y="3770642.2428723364">
		</node>
			
		
			<node id="772391467" x="1.3223641242665855E7" y="3769971.755499526">
		</node>
			
		
			<node id="778890588" x="1.3223993223763796E7" y="3769121.1077071587">
		</node>
			
	
			<node id="南京3号线林场_A" x="13210421.128129018" y="3784803.3542216048"/>
			<node id="南京3号线林场_B" x="13210443.817147652" y="3784796.67590376"/>
			<node id="南京3号线星火路_A" x="13213230.750137424" y="3783974.1412604772"/>
			<node id="南京3号线星火路_B" x="13213254.270951437" y="3783971.6677991585"/>
			<node id="南京3号线东大成贤学院_A" x="13214490.325774563" y="3783843.9136330965"/>
			<node id="南京3号线东大成贤学院_B" x="13214512.96483502" y="3783837.072863609"/>
			<node id="南京3号线泰冯路_A" x="13215719.355286246" y="3783471.377711021"/>
			<node id="南京3号线泰冯路_B" x="13215742.537596995" y="3783466.70112626"/>
			<node id="南京3号线天润城_A" x="13217408.979705323" y="3783137.4815717773"/>
			<node id="南京3号线天润城_B" x="13217425.225832012" y="3783120.298129788"/>
			<node id="南京3号线柳洲东路_A" x="13218763.144092964" y="3781706.4084154484"/>
			<node id="南京3号线柳洲东路_B" x="13218778.12882148" y="3781688.120486622"/>
			<node id="南京3号线上元门_A" x="13221399.373753466" y="3778484.6882424667"/>
			<node id="南京3号线上元门_B" x="13221418.2203856" y="3778470.4188894653"/>
			<node id="南京3号线五塘广场_A" x="13222266.764242455" y="3777835.175452283"/>
			<node id="南京3号线五塘广场_B" x="13222276.282003902" y="3777813.5399046657"/>
			<node id="南京3号线小市_A" x="13223157.72196091" y="3775793.3027537046"/>
			<node id="南京3号线小市_B" x="13223177.7907262" y="3775780.820773094"/>
			<node id="南京3号线南京站_A" x="13224358.901402496" y="3775049.953977855"/>
			<node id="南京3号线南京站_B" x="13224374.878394268" y="3775032.541980926"/>
			<node id="南京3号线南京林业大学·新庄_A" x="13225922.780936953" y="3773362.1470606574"/>
			<node id="南京3号线南京林业大学·新庄_B" x="13225911.469317388" y="3773341.4035459165"/>
			<node id="南京3号线鸡鸣寺_A" x="13224544.250674045" y="3770841.624612065"/>
			<node id="南京3号线鸡鸣寺_B" x="13224539.740240755" y="3770818.435552477"/>
			<node id="南京3号线浮桥_A" x="13224324.023835687" y="3769711.3649994386"/>
			<node id="南京3号线浮桥_B" x="13224320.25509048" y="3769688.0459436243"/>
			<node id="南京3号线大行宫_A" x="13224178.074738711" y="3768801.959721582"/>
			<node id="南京3号线大行宫_B" x="13224172.32073176" y="3768779.0516398"/>
			<node id="南京3号线常府街_A" x="13223901.742697973" y="3767707.5399022335"/>
			<node id="南京3号线常府街_B" x="13223898.73448798" y="3767684.1148695108"/>
			<node id="南京3号线夫子庙_A" x="13223740.2872727" y="3766488.334606606"/>
			<node id="南京3号线夫子庙_B" x="13223747.159505144" y="3766465.7418146036"/>
			<node id="南京3号线武定门_A" x="13224160.094047662" y="3765126.879324825"/>
			<node id="南京3号线武定门_B" x="13224155.79238066" y="3765103.662224836"/>
			<node id="南京3号线雨花门_A" x="13223912.128573064" y="3763818.0072105234"/>
			<node id="南京3号线雨花门_B" x="13223918.850153364" y="3763795.3743874603"/>
			<node id="南京3号线卡子门_A" x="13224251.833554197" y="3762670.6951435134"/>
			<node id="南京3号线卡子门_B" x="13224260.420455888" y="3762648.7046437087"/>
			<node id="南京3号线大明路_A" x="13224712.672683857" y="3761499.77489114"/>
			<node id="南京3号线大明路_B" x="13224714.627540547" y="3761476.2507287506"/>
			<node id="南京3号线明发广场_A" x="13224815.483257703" y="3760309.8795336164"/>
			<node id="南京3号线明发广场_B" x="13224809.520382348" y="3760287.04214376"/>
			<node id="南京3号线南京南站_A" x="13224522.532182965" y="3759219.5620410074"/>
			<node id="南京3号线南京南站_B" x="13224533.628859136" y="3759198.732815636"/>
			<node id="南京3号线宏运大道_A" x="13225206.069648888" y="3757944.033268314"/>
			<node id="南京3号线宏运大道_B" x="13225210.415570706" y="3757920.8394250814"/>
			<node id="南京3号线胜太西路_A" x="13225582.33611826" y="3755943.8650719193"/>
			<node id="南京3号线胜太西路_B" x="13225583.77455234" y="3755920.3154956787"/>
			<node id="南京3号线天元西路_A" x="13225703.869453795" y="3753832.1566121"/>
			<node id="南京3号线天元西路_B" x="13225719.834518496" y="3753814.7899646554"/>
			<node id="南京3号线九龙湖_A" x="13227110.114028119" y="3752302.789673847"/>
			<node id="南京3号线九龙湖_B" x="13227125.742920596" y="3752285.1233052574"/>
			<node id="南京3号线诚信大道_A" x="13228082.814804398" y="3751214.5261755083"/>
			<node id="南京3号线诚信大道_B" x="13228083.767392632" y="3751190.9606382567"/>
			<node id="南京3号线东大九龙湖校区_A" x="13228144.973150566" y="3749683.3800236285"/>
			<node id="南京3号线东大九龙湖校区_B" x="13228145.396320228" y="3749659.8039987125"/>
			<node id="南京3号线秣周东路_A" x="13228208.647899298" y="3746135.872717163"/>
			<node id="南京3号线秣周东路_B" x="13228209.07106896" y="3746112.296692247"> </node>
			<node id="南京6路清凉山公园_A" x="13220390.696680011" y="3769633.0267684427"/>
			<node id="南京6路清凉山公园_B" x="13220414.018426528" y="3769629.270528346"/>
			<node id="南京6路省人民医院1_A" x="13220987.556132294" y="3769528.0583732543"/>
			<node id="南京6路省人民医院1_B" x="13221006.051135916" y="3769542.753933122"/>
			<node id="南京6路脑科医院_A" x="13221417.026680559" y="3769871.8631753023"/>
			<node id="南京6路脑科医院_B" x="13221437.748168431" y="3769883.2063498986"/>
			<node id="南京6路随家仓_A" x="13221696.96608293" y="3770033.611989556"/>
			<node id="南京6路随家仓_B" x="13221720.194833547" y="3770029.3139691884"/>
			<node id="南京6路儿童医院_A" x="13222509.51278384" y="3769881.0176434745"/>
			<node id="南京6路儿童医院_B" x="13222533.1353372" y="3769881.14409308"/>
			<node id="南京6路珠江路·中山路_A" x="13223172.146410601" y="3769886.6322139725"/>
			<node id="南京6路珠江路·中山路_B" x="13223195.426289862" y="3769882.6217360264"/>
			<node id="南京6路莲花桥_A" x="13223731.038016452" y="3769790.7218850954"/>
			<node id="南京6路莲花桥_B" x="13223754.182371574" y="3769785.992346271"/>
			<node id="南京6路浮桥西_A" x="13223997.78251721" y="3769736.3268435453"/>
			<node id="南京6路浮桥西_B" x="13224020.8808707" y="3769731.378544619"/>
			<node id="南京6路浮桥_A" x="13224760.420462862" y="3769572.8896971075"/>
			<node id="南京6路浮桥_B" x="13224783.542587895" y="3769568.054794998"/>
			<node id="南京6路珠江路·小营_A" x="13225076.772735653" y="3769508.354069224"/>
			<node id="南京6路珠江路·小营_B" x="13225099.039744848" y="3769500.468909996"/>
			<node id="南京6路马标_A" x="13225711.541269971" y="3769277.590858261"/>
			<node id="南京6路马标_B" x="13225734.871878443" y="3769281.288956426"/>
			<node id="南京6路后宰门_A" x="13226839.95091188" y="3769445.063356992"/>
			<node id="南京6路后宰门_B" x="13226843.538723521" y="3769468.4119437337"/>
			<node id="南京6路富贵山_A" x="13226934.113925816" y="3770036.1675755014"/>
			<node id="南京6路富贵山_B" x="13226931.049118558" y="3770059.5931331604"/>
			<node id="南京6路板仓街·岗子村_A" x="13226661.031539088" y="3772051.736472578"/>
			<node id="南京6路板仓街·岗子村_B" x="13226677.590313828" y="3772068.5908746105"/>
			<node id="南京6路板仓村_A" x="13227096.471623624" y="3772495.487278391"/>
			<node id="南京6路板仓村_B" x="13227113.559203224" y="3772511.80649062"/>
			<node id="南京6路钟麓花园_A" x="13227491.177189993" y="3772874.6769392453"/>
			<node id="南京6路钟麓花园_B" x="13227510.335216397" y="3772888.5083119245"/>
			<node id="南京6路板仓街·花园路_A" x="13228010.943510473" y="3773240.4456108003"/>
			<node id="南京6路板仓街·花园路_B" x="13228016.489323065" y="3773263.4155047876"/>
			<node id="南京6路樱驼村_A" x="13228105.64912161" y="3773627.517971411"/>
			<node id="南京6路樱驼村_B" x="13228108.800456459" y="3773650.937439197"/>
			<node id="南京6路蒋王庙_A" x="13228134.26448111" y="3773895.8372662845"/>
			<node id="南京6路蒋王庙_B" x="13228151.429571068" y="3773912.0787529484"/>
			<node id="南京6路樱花路_A" x="13228399.875361089" y="3774140.587660802"/>
			<node id="南京6路樱花路_B" x="13228409.020297818" y="3774162.3780167704"/>
			<node id="南京6路樱驼花园_A" x="13228512.213203043" y="3774392.8186891945"/>
			<node id="南京6路樱驼花园_B" x="13228509.080044296" y="3774416.24333389"/>
			<node id="南京6路经五立交_A" x="13228308.037707746" y="3775885.3557654354"/>
			<node id="南京6路经五立交_B" x="13228314.063845608" y="3775908.20986878"/>
			<node id="南京6路墨香路_A" x="13228446.23264965" y="3776407.025695332"/>
			<node id="南京6路墨香路_B" x="13228451.050684944" y="3776430.1657257057"/>
			<node id="南京6路小营村_A" x="13228563.870433021" y="3776961.205351277"/>
			<node id="南京6路小营村_B" x="13228564.289525483" y="3776984.838903826"/>
			<node id="南京6路合作村_A" x="13228571.47400114" y="3777394.357664285"/>
			<node id="南京6路合作村_B" x="13228572.048047096" y="3777417.9888706626"/>
			<node id="南京6路万寿村_A" x="13228585.645941978" y="3777884.8560680384"/>
			<node id="南京6路万寿村_B" x="13228581.698477285" y="3777908.1634576656"/>
			<node id="南京6路迈化路·墨香路北_A" x="13228483.62924761" y="3778557.3266310534"/>
			<node id="南京6路迈化路·墨香路北_B" x="13228461.076190066" y="3778550.2413183525"/>
			<node id="南京6路土岗_A" x="13228111.494762346" y="3778432.7726819976"/>
			<node id="南京6路土岗_B" x="13228089.373837847" y="3778441.110030634"/>
			<node id="南京6路大瓜园_A" x="13227538.199384764" y="3778648.8469891255"/>
			<node id="南京6路大瓜园_B" x="13227516.078460265" y="3778657.1843377617"> </node>
		</nodes>
		


		<!-- ====================================================================== -->
		

	
		<links capperiod="01:00:00" effectivecellsize="7.5" effectivelanewidth="3.75">
			
		
			<link capacity="600.0" freespeed="8.333333333333334" from="1166138226" id="100944827_1" length="122.03788150917504" modes="car" oneway="1" permlanes="1.0" to="305379563">
		</link>
			
		
			<link capacity="300.0" freespeed="4.166666666666667" from="1212800598" id="105242464_0" length="204.99880356786883" modes="car" oneway="1" permlanes="1.0" to="1212800599">
		</link>
			
		
			<link capacity="300.0" freespeed="4.166666666666667" from="1212800599" id="105242464_0_r" length="204.99880356786883" modes="car" oneway="1" permlanes="1.0" to="1212800598">
		</link>
			
		
			<link capacity="600.0" freespeed="8.333333333333334" from="305197314" id="106972917_0" length="129.9915350753293" modes="car" oneway="1" permlanes="1.0" to="2449927711">
		</link>
			
		
			<link capacity="600.0" freespeed="8.333333333333334" from="2449927711" id="106972917_1" length="15.950019159628441" modes="car" oneway="1" permlanes="1.0" to="666941392">
		</link>
			
		
			<link capacity="1200.0" freespeed="12.5" from="1067108926" id="155900473_0" length="194.00278503903982" modes="car" oneway="1" permlanes="2.0" to="305197310">
		</link>
			
		
			<link capacity="1200.0" freespeed="12.5" from="305197310" id="155900473_0_r" length="194.00278503903982" modes="car" oneway="1" permlanes="2.0" to="1067108926">
		</link>
			
		
			<link capacity="3000.0" freespeed="22.22222222222222" from="305197314" id="162311599_0" length="121.71396007689248" modes="car" oneway="1" permlanes="2.0" to="6408780401">
		</link>
			
		
			<link capacity="3000.0" freespeed="22.22222222222222" from="6408780401" id="162311599_0_r" length="121.71396007689248" modes="car" oneway="1" permlanes="2.0" to="305197314">
		</link>
			
		
			<link capacity="3000.0" freespeed="22.22222222222222" from="305379565" id="162311601_0" length="170.00143311676186" modes="car" oneway="1" permlanes="2.0" to="305197314">
		</link>
			
		
			<link capacity="3000.0" freespeed="22.22222222222222" from="305197314" id="162311601_0_r" length="170.00143311676186" modes="car" oneway="1" permlanes="2.0" to="305379565">
		</link>
			
		
			<link capacity="1200.0" freespeed="12.5" from="666941386" id="162311604_0" length="158.71567809932623" modes="car" oneway="1" permlanes="2.0" to="2449713767">
		</link>
			
		
			<link capacity="1200.0" freespeed="12.5" from="2449713767" id="162311604_0_r" length="158.71567809932623" modes="car" oneway="1" permlanes="2.0" to="666941386">
		</link>
			
		
			<link capacity="1200.0" freespeed="12.5" from="2449713767" id="162311604_1" length="42.33644625893713" modes="car" oneway="1" permlanes="2.0" to="1155842378">
		</link>
			
		
			<link capacity="1200.0" freespeed="12.5" from="1155842378" id="162311604_1_r" length="42.33644625893713" modes="car" oneway="1" permlanes="2.0" to="2449713767">
		</link>
			
		
			<link capacity="1200.0" freespeed="12.5" from="1155842378" id="162311604_2" length="285.8347733369048" modes="car" oneway="1" permlanes="2.0" to="772391248">
		</link>
			
		
			<link capacity="1200.0" freespeed="12.5" from="772391248" id="162311604_2_r" length="285.8347733369048" modes="car" oneway="1" permlanes="2.0" to="1155842378">
		</link>
			
		
			<link capacity="600.0" freespeed="8.333333333333334" from="666941386" id="162311606_0" length="148.97426258673815" modes="car" oneway="1" permlanes="1.0" to="1155842407">
		</link>
			
		
			<link capacity="600.0" freespeed="8.333333333333334" from="1155842407" id="162311606_1" length="127.8760728773278" modes="car" oneway="1" permlanes="1.0" to="1155842395">
		</link>
			
		
			<link capacity="600.0" freespeed="8.333333333333334" from="1155842395" id="162311606_2" length="32.76151993766309" modes="car" oneway="1" permlanes="1.0" to="2452391781">
		</link>
			
		
			<link capacity="600.0" freespeed="8.333333333333334" from="2452391781" id="162311606_3" length="110.78491455268491" modes="car" oneway="1" permlanes="1.0" to="1155842361">
		</link>
			
		
			<link capacity="600.0" freespeed="8.333333333333334" from="1155842361" id="162311606_4" length="58.62001920657195" modes="car" oneway="1" permlanes="1.0" to="772391467">
		</link>
			
		
			<link capacity="300.0" freespeed="4.166666666666667" from="1984595800" id="187816228_0" length="353.18643066085826" modes="car" oneway="1" permlanes="1.0" to="1067108901">
		</link>
			
		
			<link capacity="300.0" freespeed="4.166666666666667" from="1067108901" id="187816228_0_r" length="353.18643066085826" modes="car" oneway="1" permlanes="1.0" to="1984595800">
		</link>
			
		
			<link capacity="300.0" freespeed="4.166666666666667" from="2026696513" id="192105382_0" length="135.03934193239627" modes="car" oneway="1" permlanes="1.0" to="2026696512">
		</link>
			
		
			<link capacity="300.0" freespeed="4.166666666666667" from="2026696512" id="192105382_0_r" length="135.03934193239627" modes="car" oneway="1" permlanes="1.0" to="2026696513">
		</link>
			
		
			<link capacity="300.0" freespeed="4.166666666666667" from="2026696497" id="192105384_0" length="108.89255905371019" modes="car" oneway="1" permlanes="1.0" to="2026696513">
		</link>
			
		
			<link capacity="300.0" freespeed="4.166666666666667" from="2026696513" id="192105384_0_r" length="108.89255905371019" modes="car" oneway="1" permlanes="1.0" to="2026696497">
		</link>
			
		
			<link capacity="300.0" freespeed="4.166666666666667" from="2026696513" id="192105384_1" length="114.60410527978703" modes="car" oneway="1" permlanes="1.0" to="2026696527">
		</link>
			
		
			<link capacity="300.0" freespeed="4.166666666666667" from="2026696527" id="192105384_1_r" length="114.60410527978703" modes="car" oneway="1" permlanes="1.0" to="2026696513">
		</link>
			
		
			<link capacity="300.0" freespeed="4.166666666666667" from="2026696527" id="192105384_2" length="179.09580412064497" modes="car" oneway="1" permlanes="1.0" to="2026696531">
		</link>
			
		
			<link capacity="300.0" freespeed="4.166666666666667" from="2026696531" id="192105384_2_r" length="179.09580412064497" modes="car" oneway="1" permlanes="1.0" to="2026696527">
		</link>
			
		
			<link capacity="300.0" freespeed="4.166666666666667" from="666941380" id="236879445_0" length="30.18384240420826" modes="car" oneway="1" permlanes="1.0" to="2519404092">
		</link>
			
		
			<link capacity="300.0" freespeed="4.166666666666667" from="2519404092" id="236879445_0_r" length="30.18384240420826" modes="car" oneway="1" permlanes="1.0" to="666941380">
		</link>
			
		
			<link capacity="300.0" freespeed="4.166666666666667" from="2519404092" id="236879445_1" length="40.42180978610086" modes="car" oneway="1" permlanes="1.0" to="2449059364">
		</link>
			
		
			<link capacity="300.0" freespeed="4.166666666666667" from="2449059364" id="236879445_1_r" length="40.42180978610086" modes="car" oneway="1" permlanes="1.0" to="2519404092">
		</link>
			
		
			<link capacity="300.0" freespeed="4.166666666666667" from="2449713779" id="236879446_0" length="119.9054746163607" modes="car" oneway="1" permlanes="1.0" to="2450052114">
		</link>
			
		
			<link capacity="300.0" freespeed="4.166666666666667" from="2450052114" id="236879446_0_r" length="119.9054746163607" modes="car" oneway="1" permlanes="1.0" to="2449713779">
		</link>
			
		
			<link capacity="300.0" freespeed="4.166666666666667" from="2450052114" id="236879446_1" length="76.42884163972143" modes="car" oneway="1" permlanes="1.0" to="2448395562">
		</link>
			
		