<?xml version="1.0" encoding="utf-8"?>
<!DOCTYPE transitSchedule
  SYSTEM 'http://www.matsim.org/files/dtd/transitSchedule_v2.dtd'>
	<transitSchedule>
		<transitStops>
			<stopFacility id="stop_南京3号线林场" linkRefId="南京3号线林场" x="13210432.472638335" y="3784800.0150626823"/>
			<stopFacility id="stop_南京3号线林场_r" linkRefId="南京3号线林场_r" x="13210437.472638335" y="3784805.0150626823"/>
			<stopFacility id="stop_南京3号线星火路" linkRefId="南京3号线星火路" x="13213242.51054443" y="3783972.904529818"/>
			<stopFacility id="stop_南京3号线星火路_r" linkRefId="南京3号线星火路_r" x="13213247.51054443" y="3783977.904529818"/>
			<stopFacility id="stop_南京3号线东大成贤学院" linkRefId="南京3号线东大成贤学院" x="13214501.645304792" y="3783840.493248353"/>
			<stopFacility id="stop_南京3号线东大成贤学院_r" linkRefId="南京3号线东大成贤学院_r" x="13214506.645304792" y="3783845.493248353"/>
			<stopFacility id="stop_南京3号线泰冯路" linkRefId="南京3号线泰冯路" x="13215730.94644162" y="3783469.0394186405"/>
			<stopFacility id="stop_南京3号线泰冯路_r" linkRefId="南京3号线泰冯路_r" x="13215735.94644162" y="3783474.0394186405"/>
			<stopFacility id="stop_南京3号线天润城" linkRefId="南京3号线天润城" x="13217417.102768667" y="3783128.8898507827"/>
			<stopFacility id="stop_南京3号线天润城_r" linkRefId="南京3号线天润城_r" x="13217422.102768667" y="3783133.8898507827"/>
			<stopFacility id="stop_南京3号线柳洲东路" linkRefId="南京3号线柳洲东路" x="13218770.636457222" y="3781697.2644510353"/>
			<stopFacility id="stop_南京3号线柳洲东路_r" linkRefId="南京3号线柳洲东路_r" x="13218775.636457222" y="3781702.2644510353"/>
			<stopFacility id="stop_南京3号线上元门" linkRefId="南京3号线上元门" x="13221408.797069533" y="3778477.553565966"/>
			<stopFacility id="stop_南京3号线上元门_r" linkRefId="南京3号线上元门_r" x="13221413.797069533" y="3778482.553565966"/>
			<stopFacility id="stop_南京3号线五塘广场" linkRefId="南京3号线五塘广场" x="13222271.523123179" y="3777824.3576784744"/>
			<stopFacility id="stop_南京3号线五塘广场_r" linkRefId="南京3号线五塘广场_r" x="13222276.523123179" y="3777829.3576784744"/>
			<stopFacility id="stop_南京3号线小市" linkRefId="南京3号线小市" x="13223167.756343555" y="3775787.0617633993"/>
			<stopFacility id="stop_南京3号线小市_r" linkRefId="南京3号线小市_r" x="13223172.756343555" y="3775792.0617633993"/>
			<stopFacility id="stop_南京3号线南京站" linkRefId="南京3号线南京站" x="13224366.889898382" y="3775041.2479793904"/>
			<stopFacility id="stop_南京3号线南京站_r" linkRefId="南京3号线南京站_r" x="13224371.889898382" y="3775046.2479793904"/>
			<stopFacility id="stop_南京3号线南京林业大学·新庄" linkRefId="南京3号线南京林业大学·新庄" x="13225917.12512717" y="3773351.775303287"/>
			<stopFacility id="stop_南京3号线南京林业大学·新庄_r" linkRefId="南京3号线南京林业大学·新庄_r" x="13225922.12512717" y="3773356.775303287"/>
			<stopFacility id="stop_南京3号线鸡鸣寺" linkRefId="南京3号线鸡鸣寺" x="13224541.9954574" y="3770830.030082271"/>
			<stopFacility id="stop_南京3号线鸡鸣寺_r" linkRefId="南京3号线鸡鸣寺_r" x="13224546.9954574" y="3770835.030082271"/>
			<stopFacility id="stop_南京3号线浮桥" linkRefId="南京3号线浮桥" x="13224322.139463084" y="3769699.7054715315"/>
			<stopFacility id="stop_南京3号线浮桥_r" linkRefId="南京3号线浮桥_r" x="13224327.139463084" y="3769704.7054715315"/>
			<stopFacility id="stop_南京3号线大行宫" linkRefId="南京3号线大行宫" x="13224175.197735235" y="3768790.505680691"/>
			<stopFacility id="stop_南京3号线大行宫_r" linkRefId="南京3号线大行宫_r" x="13224180.197735235" y="3768795.505680691"/>
			<stopFacility id="stop_南京3号线常府街" linkRefId="南京3号线常府街" x="13223900.238592977" y="3767695.827385872"/>
			<stopFacility id="stop_南京3号线常府街_r" linkRefId="南京3号线常府街_r" x="13223905.238592977" y="3767700.827385872"/>
			<stopFacility id="stop_南京3号线夫子庙" linkRefId="南京3号线夫子庙" x="13223743.723388921" y="3766477.038210605"/>
			<stopFacility id="stop_南京3号线夫子庙_r" linkRefId="南京3号线夫子庙_r" x="13223748.723388921" y="3766482.038210605"/>
			<stopFacility id="stop_南京3号线武定门" linkRefId="南京3号线武定门" x="13224157.943214161" y="3765115.2707748306"/>
			<stopFacility id="stop_南京3号线武定门_r" linkRefId="南京3号线武定门_r" x="13224162.943214161" y="3765120.2707748306"/>
			<stopFacility id="stop_南京3号线雨花门" linkRefId="南京3号线雨花门" x="13223915.489363214" y="3763806.690798992"/>
			<stopFacility id="stop_南京3号线雨花门_r" linkRefId="南京3号线雨花门_r" x="13223920.489363214" y="3763811.690798992"/>
			<stopFacility id="stop_南京3号线卡子门" linkRefId="南京3号线卡子门" x="13224256.127005043" y="3762659.699893611"/>
			<stopFacility id="stop_南京3号线卡子门_r" linkRefId="南京3号线卡子门_r" x="13224261.127005043" y="3762664.699893611"/>
			<stopFacility id="stop_南京3号线大明路" linkRefId="南京3号线大明路" x="13224713.650112202" y="3761488.0128099453"/>
			<stopFacility id="stop_南京3号线大明路_r" linkRefId="南京3号线大明路_r" x="13224718.650112202" y="3761493.0128099453"/>
			<stopFacility id="stop_南京3号线明发广场" linkRefId="南京3号线明发广场" x="13224812.501820026" y="3760298.460838688"/>
			<stopFacility id="stop_南京3号线明发广场_r" linkRefId="南京3号线明发广场_r" x="13224817.501820026" y="3760303.460838688"/>
			<stopFacility id="stop_南京3号线南京南站" linkRefId="南京3号线南京南站" x="13224528.08052105" y="3759209.1474283217"/>
			<stopFacility id="stop_南京3号线南京南站_r" linkRefId="南京3号线南京南站_r" x="13224533.08052105" y="3759214.1474283217"/>
			<stopFacility id="stop_南京3号线宏运大道" linkRefId="南京3号线宏运大道" x="13225208.242609797" y="3757932.4363466976"/>
			<stopFacility id="stop_南京3号线宏运大道_r" linkRefId="南京3号线宏运大道_r" x="13225213.242609797" y="3757937.4363466976"/>
			<stopFacility id="stop_南京3号线胜太西路" linkRefId="南京3号线胜太西路" x="13225583.0553353" y="3755932.090283799"/>
			<stopFacility id="stop_南京3号线胜太西路_r" linkRefId="南京3号线胜太西路_r" x="13225588.0553353" y="3755937.090283799"/>
			<stopFacility id="stop_南京3号线天元西路" linkRefId="南京3号线天元西路" x="13225711.851986146" y="3753823.4732883777"/>
			<stopFacility id="stop_南京3号线天元西路_r" linkRefId="南京3号线天元西路_r" x="13225716.851986146" y="3753828.4732883777"/>
			<stopFacility id="stop_南京3号线九龙湖" linkRefId="南京3号线九龙湖" x="13227117.928474357" y="3752293.9564895523"/>
			<stopFacility id="stop_南京3号线九龙湖_r" linkRefId="南京3号线九龙湖_r" x="13227122.928474357" y="3752298.9564895523"/>
			<stopFacility id="stop_南京3号线诚信大道" linkRefId="南京3号线诚信大道" x="13228083.291098515" y="3751202.7434068825"/>
			<stopFacility id="stop_南京3号线诚信大道_r" linkRefId="南京3号线诚信大道_r" x="13228088.291098515" y="3751207.7434068825"/>
			<stopFacility id="stop_南京3号线东大九龙湖校区" linkRefId="南京3号线东大九龙湖校区" x="13228145.184735397" y="3749671.5920111705"/>
			<stopFacility id="stop_南京3号线东大九龙湖校区_r" linkRefId="南京3号线东大九龙湖校区_r" x="13228150.184735397" y="3749676.5920111705"/>
			<stopFacility id="stop_南京3号线秣周东路" linkRefId="南京3号线秣周东路" x="13228208.859484129" y="3746124.084704705"/>
			<stopFacility id="stop_南京3号线秣周东路_r" linkRefId="南京3号线秣周东路_r" x="13228213.859484129" y="3746129.084704705"/>
			<stopFacility id="stop_南京6路清凉山公园" linkRefId="南京6路清凉山公园" x="13220402.35755327" y="3769631.1486483943"/>
			<stopFacility id="stop_南京6路清凉山公园_r" linkRefId="南京6路清凉山公园_r" x="13220407.35755327" y="3769636.1486483943"/>
			<stopFacility id="stop_南京6路省人民医院1" linkRefId="南京6路省人民医院1" x="13220996.803634105" y="3769535.406153188"/>
			<stopFacility id="stop_南京6路省人民医院1_r" linkRefId="南京6路省人民医院1_r" x="13221001.803634105" y="3769540.406153188"/>
			<stopFacility id="stop_南京6路脑科医院" linkRefId="南京6路脑科医院" x="13221427.387424495" y="3769877.5347626004"/>
			<stopFacility id="stop_南京6路脑科医院_r" linkRefId="南京6路脑科医院_r" x="13221432.387424495" y="3769882.5347626004"/>
			<stopFacility id="stop_南京6路随家仓" linkRefId="南京6路随家仓" x="13221708.580458239" y="3770031.462979372"/>
			<stopFacility id="stop_南京6路随家仓_r" linkRefId="南京6路随家仓_r" x="13221713.580458239" y="3770036.462979372"/>
			<stopFacility id="stop_南京6路儿童医院" linkRefId="南京6路儿童医院" x="13222521.32406052" y="3769881.0808682772"/>
			<stopFacility id="stop_南京6路儿童医院_r" linkRefId="南京6路儿童医院_r" x="13222526.32406052" y="3769886.0808682772"/>
			<stopFacility id="stop_南京6路珠江路·中山路" linkRefId="南京6路珠江路·中山路" x="13223183.786350232" y="3769884.6269749994"/>
			<stopFacility id="stop_南京6路珠江路·中山路_r" linkRefId="南京6路珠江路·中山路_r" x="13223188.786350232" y="3769889.6269749994"/>
			<stopFacility id="stop_南京6路莲花桥" linkRefId="南京6路莲花桥" x="13223742.610194013" y="3769788.357115683"/>
			<stopFacility id="stop_南京6路莲花桥_r" linkRefId="南京6路莲花桥_r" x="13223747.610194013" y="3769793.357115683"/>
			<stopFacility id="stop_南京6路浮桥西" linkRefId="南京6路浮桥西" x="13224009.331693955" y="3769733.852694082"/>
			<stopFacility id="stop_南京6路浮桥西_r" linkRefId="南京6路浮桥西_r" x="13224014.331693955" y="3769738.852694082"/>
			<stopFacility id="stop_南京6路浮桥" linkRefId="南京6路浮桥" x="13224771.981525378" y="3769570.4722460527"/>
			<stopFacility id="stop_南京6路浮桥_r" linkRefId="南京6路浮桥_r" x="13224776.981525378" y="3769575.4722460527"/>
			<stopFacility id="stop_南京6路珠江路·小营" linkRefId="南京6路珠江路·小营" x="13225087.90624025" y="3769504.41148961"/>
			<stopFacility id="stop_南京6路珠江路·小营_r" linkRefId="南京6路珠江路·小营_r" x="13225092.90624025" y="3769509.41148961"/>
			<stopFacility id="stop_南京6路马标" linkRefId="南京6路马标" x="13225723.206574207" y="3769279.4399073436"/>
			<stopFacility id="stop_南京6路马标_r" linkRefId="南京6路马标_r" x="13225728.206574207" y="3769284.4399073436"/>
			<stopFacility id="stop_南京6路后宰门" linkRefId="南京6路后宰门" x="13226841.7448177" y="3769456.737650363"/>
			<stopFacility id="stop_南京6路后宰门_r" linkRefId="南京6路后宰门_r" x="13226846.7448177" y="3769461.737650363"/>
			<stopFacility id="stop_南京6路富贵山" linkRefId="南京6路富贵山" x="13226932.581522187" y="3770047.880354331"/>
			<stopFacility id="stop_南京6路富贵山_r" linkRefId="南京6路富贵山_r" x="13226937.581522187" y="3770052.880354331"/>
			<stopFacility id="stop_南京6路板仓街·岗子村" linkRefId="南京6路板仓街·岗子村" x="13226669.310926458" y="3772060.163673594"/>
			<stopFacility id="stop_南京6路板仓街·岗子村_r" linkRefId="南京6路板仓街·岗子村_r" x="13226674.310926458" y="3772065.163673594"/>
			<stopFacility id="stop_南京6路板仓村" linkRefId="南京6路板仓村" x="13227105.015413424" y="3772503.6468845056"/>
			<stopFacility id="stop_南京6路板仓村_r" linkRefId="南京6路板仓村_r" x="13227110.015413424" y="3772508.6468845056"/>
			<stopFacility id="stop_南京6路钟麓花园" linkRefId="南京6路钟麓花园" x="13227500.756203195" y="3772881.592625585"/>
			<stopFacility id="stop_南京6路钟麓花园_r" linkRefId="南京6路钟麓花园_r" x="13227505.756203195" y="3772886.592625585"/>
			<stopFacility id="stop_南京6路板仓街·花园路" linkRefId="南京6路板仓街·花园路" x="13228013.716416769" y="3773251.930557794"/>
			<stopFacility id="stop_南京6路板仓街·花园路_r" linkRefId="南京6路板仓街·花园路_r" x="13228018.716416769" y="3773256.930557794"/>
			<stopFacility id="stop_南京6路樱驼村" linkRefId="南京6路樱驼村" x="13228107.224789035" y="3773639.227705304"/>
			<stopFacility id="stop_南京6路樱驼村_r" linkRefId="南京6路樱驼村_r" x="13228112.224789035" y="3773644.227705304"/>
			<stopFacility id="stop_南京6路蒋王庙" linkRefId="南京6路蒋王庙" x="13228142.84702609" y="3773903.9580096165"/>
			<stopFacility id="stop_南京6路蒋王庙_r" linkRefId="南京6路蒋王庙_r" x="13228147.84702609" y="3773908.9580096165"/>
			<stopFacility id="stop_南京6路樱花路" linkRefId="南京6路樱花路" x="13228404.447829453" y="3774151.482838786"/>
			<stopFacility id="stop_南京6路樱花路_r" linkRefId="南京6路樱花路_r" x="13228409.447829453" y="3774156.482838786"/>
			<stopFacility id="stop_南京6路樱驼花园" linkRefId="南京6路樱驼花园" x="13228510.64662367" y="3774404.5310115423"/>
			<stopFacility id="stop_南京6路樱驼花园_r" linkRefId="南京6路樱驼花园_r" x="13228515.64662367" y="3774409.5310115423"/>
			<stopFacility id="stop_南京6路经五立交" linkRefId="南京6路经五立交" x="13228311.050776677" y="3775896.7828171076"/>
			<stopFacility id="stop_南京6路经五立交_r" linkRefId="南京6路经五立交_r" x="13228316.050776677" y="3775901.7828171076"/>
			<stopFacility id="stop_南京6路墨香路" linkRefId="南京6路墨香路" x="13228448.641667297" y="3776418.595710519"/>
			<stopFacility id="stop_南京6路墨香路_r" linkRefId="南京6路墨香路_r" x="13228453.641667297" y="3776423.595710519"/>
			<stopFacility id="stop_南京6路小营村" linkRefId="南京6路小营村" x="13228564.079979252" y="3776973.0221275515"/>
			<stopFacility id="stop_南京6路小营村_r" linkRefId="南京6路小营村_r" x="13228569.079979252" y="3776978.0221275515"/>
			<stopFacility id="stop_南京6路合作村" linkRefId="南京6路合作村" x="13228571.761024117" y="3777406.173267474"/>
			<stopFacility id="stop_南京6路合作村_r" linkRefId="南京6路合作村_r" x="13228576.761024117" y="3777411.173267474"/>
			<stopFacility id="stop_南京6路万寿村" linkRefId="南京6路万寿村" x="13228583.672209632" y="3777896.509762852"/>
			<stopFacility id="stop_南京6路万寿村_r" linkRefId="南京6路万寿村_r" x="13228588.672209632" y="3777901.509762852"/>
			<stopFacility id="stop_南京6路迈化路·墨香路北" linkRefId="南京6路迈化路·墨香路北" x="13228472.352718838" y="3778553.783974703"/>
			<stopFacility id="stop_南京6路迈化路·墨香路北_r" linkRefId="南京6路迈化路·墨香路北_r" x="13228477.352718838" y="3778558.783974703"/>
			<stopFacility id="stop_南京6路土岗" linkRefId="南京6路土岗" x="13228100.434300097" y="3778436.9413563157"/>
			<stopFacility id="stop_南京6路土岗_r" linkRefId="南京6路土岗_r" x="13228105.434300097" y="3778441.9413563157"/>
			<stopFacility id="stop_南京6路大瓜园" linkRefId="南京6路大瓜园" x="13227527.138922514" y="3778653.0156634436"/>
			<stopFacility id="stop_南京6路大瓜园_r" linkRefId="南京6路大瓜园_r" x="13227532.138922514" y="3778658.0156634436"/>
		</transitStops>
		<transitLine id="南京3号线">
			<transitRoute id="南京3号线1">
				<transportMode>pt</transportMode>
				<routeProfile>
					<stop awaitDeparture="false" departureOffset="00:00:30" refId="stop_南京3号线林场"/>
					<stop arrivalOffset="00:02:30" awaitDeparture="false" departureOffset="00:02:30" refId="stop_南京3号线星火路"/>
					<stop arrivalOffset="00:04:30" awaitDeparture="false" departureOffset="00:04:30" refId="stop_南京3号线东大成贤学院"/>
					<stop arrivalOffset="00:06:30" awaitDeparture="false" departureOffset="00:06:30" refId="stop_南京3号线泰冯路"/>
					<stop arrivalOffset="00:08:30" awaitDeparture="false" departureOffset="00:08:30" refId="stop_南京3号线天润城"/>
					<stop arrivalOffset="00:10:30" awaitDeparture="false" departureOffset="00:10:30" refId="stop_南京3号线柳洲东路"/>
					<stop arrivalOffset="00:12:30" awaitDeparture="false" departureOffset="00:12:30" refId="stop_南京3号线上元门"/>
					<stop arrivalOffset="00:14:30" awaitDeparture="false" departureOffset="00:14:30" refId="stop_南京3号线五塘广场"/>
					<stop arrivalOffset="00:16:30" awaitDeparture="false" departureOffset="00:16:30" refId="stop_南京3号线小市"/>
					<stop arrivalOffset="00:18:30" awaitDeparture="false" departureOffset="00:18:30" refId="stop_南京3号线南京站"/>
					<stop arrivalOffset="00:20:30" awaitDeparture="false" departureOffset="00:20:30" refId="stop_南京3号线南京林业大学·新庄"/>
					<stop arrivalOffset="00:22:30" awaitDeparture="false" departureOffset="00:22:30" refId="stop_南京3号线鸡鸣寺"/>
					<stop arrivalOffset="00:24:30" awaitDeparture="false" departureOffset="00:24:30" refId="stop_南京3号线浮桥"/>
					<stop arrivalOffset="00:26:30" awaitDeparture="false" departureOffset="00:26:30" refId="stop_南京3号线大行宫"/>
					<stop arrivalOffset="00:28:30" awaitDeparture="false" departureOffset="00:28:30" refId="stop_南京3号线常府街"/>
					<stop arrivalOffset="00:30:30" awaitDeparture="false" departureOffset="00:30:30" refId="stop_南京3号线夫子庙"/>
					<stop arrivalOffset="00:32:30" awaitDeparture="false" departureOffset="00:32:30" refId="stop_南京3号线武定门"/>
					<stop arrivalOffset="00:34:30" awaitDeparture="false" departureOffset="00:34:30" refId="stop_南京3号线雨花门"/>
					<stop arrivalOffset="00:36:30" awaitDeparture="false" departureOffset="00:36:30" refId="stop_南京3号线卡子门"/>
					<stop arrivalOffset="00:38:30" awaitDeparture="false" departureOffset="00:38:30" refId="stop_南京3号线大明路"/>
					<stop arrivalOffset="00:40:30" awaitDeparture="false" departureOffset="00:40:30" refId="stop_南京3号线明发广场"/>
					<stop arrivalOffset="00:42:30" awaitDeparture="false" departureOffset="00:42:30" refId="stop_南京3号线南京南站"/>
					<stop arrivalOffset="00:44:30" awaitDeparture="false" departureOffset="00:44:30" refId="stop_南京3号线宏运大道"/>
					<stop arrivalOffset="00:46:30" awaitDeparture="false" departureOffset="00:46:30" refId="stop_南京3号线胜太西路"/>
					<stop arrivalOffset="00:48:30" awaitDeparture="false" departureOffset="00:48:30" refId="stop_南京3号线天元西路"/>
					<stop arrivalOffset="00:50:30" awaitDeparture="false" departureOffset="00:50:30" refId="stop_南京3号线九龙湖"/>
					<stop arrivalOffset="00:52:30" awaitDeparture="false" departureOffset="00:52:30" refId="stop_南京3号线诚信大道"/>
					<stop arrivalOffset="00:54:30" awaitDeparture="false" departureOffset="00:54:30" refId="stop_南京3号线东大九龙湖校区"/>
					<stop arrivalOffset="00:56:30" awaitDeparture="false" refId="stop_南京3号线秣周东路"/>
				</routeProfile>
				<route>
					<link refId="南京3号线林场"/>
					<link refId="from_南京3号线林场_B_to_南京3号线星火路_A"/>
					<link refId="南京3号线星火路"/>
					<link refId="from_南京3号线星火路_B_to_南京3号线东大成贤学院_A"/>
					<link refId="南京3号线东大成贤学院"/>
					<link refId="from_南京3号线东大成贤学院_B_to_南京3号线泰冯路_A"/>
					<link refId="南京3号线泰冯路"/>
					<link refId="from_南京3号线泰冯路_B_to_南京3号线天润城_A"/>
					<link refId="南京3号线天润城"/>
					<link refId="from_南京3号线天润城_B_to_南京3号线柳洲东路_A"/>
					<link refId="南京3号线柳洲东路"/>
					<link refId="from_南京3号线柳洲东路_B_to_南京3号线上元门_A"/>
					<link refId="南京3号线上元门"/>
					<link refId="from_南京3号线上元门_B_to_南京3号线五塘广场_A"/>
					<link refId="南京3号线五塘广场"/>
					<link refId="from_南京3号线五塘广场_B_to_南京3号线小市_A"/>
					<link refId="南京3号线小市"/>
					<link refId="from_南京3号线小市_B_to_南京3号线南京站_A"/>
					<link refId="南京3号线南京站"/>
					<link refId="from_南京3号线南京站_B_to_南京3号线南京林业大学·新庄_A"/>
					<link refId="南京3号线南京林业大学·新庄"/>
					<link refId="from_南京3号线南京林业大学·新庄_B_to_南京3号线鸡鸣寺_A"/>
					<link refId="南京3号线鸡鸣寺"/>
					<link refId="from_南京3号线鸡鸣寺_B_to_南京3号线浮桥_A"/>
					<link refId="南京3号线浮桥"/>
					<link refId="from_南京3号线浮桥_B_to_南京3号线大行宫_A"/>
					<link refId="南京3号线大行宫"/>
					<link refId="from_南京3号线大行宫_B_to_南京3号线常府街_A"/>
					<link refId="南京3号线常府街"/>
					<link refId="from_南京3号线常府街_B_to_南京3号线夫子庙_A"/>
					<link refId="南京3号线夫子庙"/>
					<link refId="from_南京3号线夫子庙_B_to_南京3号线武定门_A"/>
					<link refId="南京3号线武定门"/>
					<link refId="from_南京3号线武定门_B_to_南京3号线雨花门_A"/>
					<link refId="南京3号线雨花门"/>
					<link refId="from_南京3号线雨花门_B_to_南京3号线卡子门_A"/>
					<link refId="南京3号线卡子门"/>
					<link refId="from_南京3号线卡子门_B_to_南京3号线大明路_A"/>
					<link refId="南京3号线大明路"/>
					<link refId="from_南京3号线大明路_B_to_南京3号线明发广场_A"/>
					<link refId="南京3号线明发广场"/>
					<link refId="from_南京3号线明发广场_B_to_南京3号线南京南站_A"/>
					<link refId="南京3号线南京南站"/>
					<link refId="from_南京3号线南京南站_B_to_南京3号线宏运大道_A"/>
					<link refId="南京3号线宏运大道"/>
					<link refId="from_南京3号线宏运大道_B_to_南京3号线胜太西路_A"/>
					<link refId="南京3号线胜太西路"/>
					<link refId="from_南京3号线胜太西路_B_to_南京3号线天元西路_A"/>
					<link refId="南京3号线天元西路"/>
					<link refId="from_南京3号线天元西路_B_to_南京3号线九龙湖_A"/>
					<link refId="南京3号线九龙湖"/>
					<link refId="from_南京3号线九龙湖_B_to_南京3号线诚信大道_A"/>
					<link refId="南京3号线诚信大道"/>
					<link refId="from_南京3号线诚信大道_B_to_南京3号线东大九龙湖校区_A"/>
					<link refId="南京3号线东大九龙湖校区"/>
					<link refId="from_南京3号线东大九龙湖校区_B_to_南京3号线秣周东路_A"/>
					<link refId="南京3号线秣周东路"/>
				</route>
				<departures>
					<departure departureTime="06:00:00" id="0" vehicleRefId="00"/>
					<departure departureTime="06:10:00" id="1" vehicleRefId="01"/>
					<departure departureTime="06:20:00" id="2" vehicleRefId="02"/>
					<departure departureTime="06:30:00" id="3" vehicleRefId="03"/>
					<departure departureTime="06:40:00" id="4" vehicleRefId="04"/>
					<departure departureTime="06:50:00" id="5" vehicleRefId="05"/>
					<departure departureTime="07:00:00" id="6" vehicleRefId="06"/>
					<departure departureTime="07:10:00" id="7" vehicleRefId="07"/>
					<departure departureTime="07:20:00" id="8" vehicleRefId="08"/>
					<departure departureTime="07:30:00" id="9" vehicleRefId="09"/>
					<departure departureTime="07:40:00" id="10" vehicleRefId="10"/>
					<departure departureTime="07:50:00" id="11" vehicleRefId="11"/>
					<departure departureTime="08:00:00" id="12" vehicleRefId="12"/>
					<departure departureTime="08:10:00" id="13" vehicleRefId="13"/>
					<departure departureTime="08:20:00" id="14" vehicleRefId="14"/>
					<departure departureTime="08:30:00" id="15" vehicleRefId="15"/>
					<departure departureTime="08:40:00" id="16" vehicleRefId="16"/>
					<departure departureTime="08:50:00" id="17" vehicleRefId="17"/>
					<departure departureTime="09:00:00" id="18" vehicleRefId="18"/>
					<departure departureTime="09:10:00" id="19" vehicleRefId="19"/>
					<departure departureTime="09:20:00" id="20" vehicleRefId="20"/>
					<departure departureTime="09:30:00" id="21" vehicleRefId="21"/>
					<departure departureTime="09:40:00" id="22" vehicleRefId="22"/>
					<departure departureTime="09:50:00" id="23" vehicleRefId="23"/>
					<departure departureTime="10:00:00" id="24" vehicleRefId="24"/>
					<departure departureTime="10:10:00" id="25" vehicleRefId="00"/>
					<departure departureTime="10:20:00" id="26" vehicleRefId="01"/>
					<departure departureTime="10:30:00" id="27" vehicleRefId="02"/>
					<departure departureTime="10:40:00" id="28" vehicleRefId="03"/>
					<departure departureTime="10:50:00" id="29" vehicleRefId="04"/>
					<departure departureTime="11:00:00" id="30" vehicleRefId="05"/>
					<departure departureTime="11:10:00" id="31" vehicleRefId="06"/>
					<departure departureTime="11:20:00" id="32" vehicleRefId="07"/>
					<departure departureTime="11:30:00" id="33" vehicleRefId="08"/>
					<departure departureTime="11:40:00" id="34" vehicleRefId="09"/>
					<departure departureTime="11:50:00" id="35" vehicleRefId="10"/>
					<departure departureTime="12:00:00" id="36" vehicleRefId="11"/>
					<departure departureTime="12:10:00" id="37" vehicleRefId="12"/>
					<departure departureTime="12:20:00" id="38" vehicleRefId="13"/>
					<departure departureTime="12:30:00" id="39" vehicleRefId="14"/>
					<departure departureTime="12:40:00" id="40" vehicleRefId="15"/>
					<departure departureTime="12:50:00" id="41" vehicleRefId="16"/>
					<departure departureTime="13:00:00" id="42" vehicleRefId="17"/>
					<departure departureTime="13:10:00" id="43" vehicleRefId="18"/>
					<departure departureTime="13:20:00" id="44" vehicleRefId="19"/>
					<departure departureTime="13:30:00" id="45" vehicleRefId="20"/>
					<departure departureTime="13:40:00" id="46" vehicleRefId="21"/>
					<departure departureTime="13:50:00" id="47" vehicleRefId="22"/>
					<departure departureTime="14:00:00" id="48" vehicleRefId="23"/>
					<departure departureTime="14:10:00" id="49" vehicleRefId="24"/>
					<departure departureTime="14:20:00" id="50" vehicleRefId="00"/>
					<departure departureTime="14:30:00" id="51" vehicleRefId="01"/>
					<departure departureTime="14:40:00" id="52" vehicleRefId="02"/>
					<departure departureTime="14:50:00" id="53" vehicleRefId="03"/>
					<departure departureTime="15:00:00" id="54" vehicleRefId="04"/>
					<departure departureTime="15:10:00" id="55" vehicleRefId="05"/>
					<departure departureTime="15:20:00" id="56" vehicleRefId="06"/>
					<departure departureTime="15:30:00" id="57" vehicleRefId="07"/>
					<departure departureTime="15:40:00" id="58" vehicleRefId="08"/>
					<departure departureTime="15:50:00" id="59" vehicleRefId="09"/>
					<departure departureTime="16:00:00" id="60" vehicleRefId="10"/>
					<departure departureTime="16:10:00" id="61" vehicleRefId="11"/>
					<departure departureTime="16:20:00" id="62" vehicleRefId="12"/>
					<departure departureTime="16:30:00" id="63" vehicleRefId="13"/>
					<departure departureTime="16:40:00" id="64" vehicleRefId="14"/>
					<departure departureTime="16:50:00" id="65" vehicleRefId="15"/>
					<departure departureTime="17:00:00" id="66" vehicleRefId="16"/>
					<departure departureTime="17:10:00" id="67" vehicleRefId="17"/>
					<departure departureTime="17:20:00" id="68" vehicleRefId="18"/>
					<departure departureTime="17:30:00" id="69" vehicleRefId="19"/>
					<departure departureTime="17:40:00" id="70" vehicleRefId="20"/>
					<departure departureTime="17:50:00" id="71" vehicleRefId="21"/>
					<departure departureTime="18:00:00" id="72" vehicleRefId="22"/>
					<departure departureTime="18:10:00" id="73" vehicleRefId="23"/>
					<departure departureTime="18:20:00" id="74" vehicleRefId="24"/>
					<departure departureTime="18:30:00" id="75" vehicleRefId="00"/>
					<departure departureTime="18:40:00" id="76" vehicleRefId="01"/>
					<departure departureTime="18:50:00" id="77" vehicleRefId="02"/>
					<departure departureTime="19:00:00" id="78" vehicleRefId="03"/>
					<departure departureTime="19:10:00" id="79" vehicleRefId="04"/>
					<departure departureTime="19:20:00" id="80" vehicleRefId="05"/>
					<departure departureTime="19:30:00" id="81" vehicleRefId="06"/>
					<departure departureTime="19:40:00" id="82" vehicleRefId="07"/>
					<departure departureTime="19:50:00" id="83" vehicleRefId="08"/>
					<departure departureTime="20:00:00" id="84" vehicleRefId="09"/>
					<departure departureTime="20:10:00" id="85" vehicleRefId="10"/>
					<departure departureTime="20:20:00" id="86" vehicleRefId="11"/>
					<departure departureTime="20:30:00" id="87" vehicleRefId="12"/>
					<departure departureTime="20:40:00" id="88" vehicleRefId="13"/>
					<departure departureTime="20:50:00" id="89" vehicleRefId="14"/>
					<departure departureTime="21:00:00" id="90" vehicleRefId="15"/>
					<departure departureTime="21:10:00" id="91" vehicleRefId="16"/>
					<departure departureTime="21:20:00" id="92" vehicleRefId="17"/>
					<departure departureTime="21:30:00" id="93" vehicleRefId="18"/>
					<departure departureTime="21:40:00" id="94" vehicleRefId="19"/>
					<departure departureTime="21:50:00" id="95" vehicleRefId="20"/>
					<departure departureTime="22:00:00" id="96" vehicleRefId="21"/>
					<departure departureTime="22:10:00" id="97" vehicleRefId="22"/>
					<departure departureTime="22:20:00" id="98" vehicleRefId="23"/>
					<departure departureTime="22:30:00" id="99" vehicleRefId="24"/>
					<departure departureTime="22:40:00" id="100" vehicleRefId="00"/>
					<departure departureTime="22:50:00" id="101" vehicleRefId="01"/>
					<departure departureTime="23:00:00" id="102" vehicleRefId="02"/>
				</departures>
			</transitRoute>
			<transitRoute id="南京3号线2">
				<transportMode>pt</transportMode>
				<routeProfile>
					<stop awaitDeparture="false" departureOffset="00:00:30" refId="stop_南京3号线秣周东路_r"/>
					<stop arrivalOffset="00:02:30" awaitDeparture="false" departureOffset="00:02:30" refId="stop_南京3号线东大九龙湖校区_r"/>
					<stop arrivalOffset="00:04:30" awaitDeparture="false" departureOffset="00:04:30" refId="stop_南京3号线诚信大道_r"/>
					<stop arrivalOffset="00:06:30" awaitDeparture="false" departureOffset="00:06:30" refId="stop_南京3号线九龙湖_r"/>
					<stop arrivalOffset="00:08:30" awaitDeparture="false" departureOffset="00:08:30" refId="stop_南京3号线天元西路_r"/>
					<stop arrivalOffset="00:10:30" awaitDeparture="false" departureOffset="00:10:30" refId="stop_南京3号线胜太西路_r"/>
					<stop arrivalOffset="00:12:30" awaitDeparture="false" departureOffset="00:12:30" refId="stop_南京3号线宏运大道_r"/>
					<stop arrivalOffset="00:14:30" awaitDeparture="false" departureOffset="00:14:30" refId="stop_南京3号线南京南站_r"/>
					<stop arrivalOffset="00:16:30" awaitDeparture="false" departureOffset="00:16:30" refId="stop_南京3号线明发广场_r"/>
					<stop arrivalOffset="00:18:30" awaitDeparture="false" departureOffset="00:18:30" refId="stop_南京3号线大明路_r"/>
					<stop arrivalOffset="00:20:30" awaitDeparture="false" departureOffset="00:20:30" refId="stop_南京3号线卡子门_r"/>
					<stop arrivalOffset="00:22:30" awaitDeparture="false" departureOffset="00:22:30" refId="stop_南京3号线雨花门_r"/>
					<stop arrivalOffset="00:24:30" awaitDeparture="false" departureOffset="00:24:30" refId="stop_南京3号线武定门_r"/>
					<stop arrivalOffset="00:26:30" awaitDeparture="false" departureOffset="00:26:30" refId="stop_南京3号线夫子庙_r"/>
					<stop arrivalOffset="00:28:30" awaitDeparture="false" departureOffset="00:28:30" refId="stop_南京3号线常府街_r"/>
					<stop arrivalOffset="00:30:30" awaitDeparture="false" departureOffset="00:30:30" refId="stop_南京3号线大行宫_r"/>
					<stop arrivalOffset="00:32:30" awaitDeparture="false" departureOffset="00:32:30" refId="stop_南京3号线浮桥_r"/>
					<stop arrivalOffset="00:34:30" awaitDeparture="false" departureOffset="00:34:30" refId="stop_南京3号线鸡鸣寺_r"/>
					<stop arrivalOffset="00:36:30" awaitDeparture="false" departureOffset="00:36:30" refId="stop_南京3号线南京林业大学·新庄_r"/>
					<stop arrivalOffset="00:38:30" awaitDeparture="false" departureOffset="00:38:30" refId="stop_南京3号线南京站_r"/>
					<stop arrivalOffset="00:40:30" awaitDeparture="false" departureOffset="00:40:30" refId="stop_南京3号线小市_r"/>
					<stop arrivalOffset="00:42:30" awaitDeparture="false" departureOffset="00:42:30" refId="stop_南京3号线五塘广场_r"/>
					<stop arrivalOffset="00:44:30" awaitDeparture="false" departureOffset="00:44:30" refId="stop_南京3号线上元门_r"/>
					<stop arrivalOffset="00:46:30" awaitDeparture="false" departureOffset="00:46:30" refId="stop_南京3号线柳洲东路_r"/>
					<stop arrivalOffset="00:48:30" awaitDeparture="false" departureOffset="00:48:30" refId="stop_南京3号线天润城_r"/>
					<stop arrivalOffset="00:50:30" awaitDeparture="false" departureOffset="00:50:30" refId="stop_南京3号线泰冯路_r"/>
					<stop arrivalOffset="00:52:30" awaitDeparture="false" departureOffset="00:52:30" refId="stop_南京3号线东大成贤学院_r"/>
					<stop arrivalOffset="00:54:30" awaitDeparture="false" departureOffset="00:54:30" refId="stop_南京3号线星火路_r"/>
					<stop arrivalOffset="00:56:30" awaitDeparture="false" refId="stop_南京3号线林场_r"/>
				</routeProfile>
				<route>
					<link refId="南京3号线秣周东路_r"/>
					<link refId="from_南京3号线东大九龙湖校区_B_to_南京3号线秣周东路_A_r"/>
					<link refId="南京3号线东大九龙湖校区_r"/>
					<link refId="from_南京3号线诚信大道_B_to_南京3号线东大九龙湖校区_A_r"/>
					<link refId="南京3号线诚信大道_r"/>
					<link refId="from_南京3号线九龙湖_B_to_南京3号线诚信大道_A_r"/>
					<link refId="南京3号线九龙湖_r"/>
					<link refId="from_南京3号线天元西路_B_to_南京3号线九龙湖_A_r"/>
					<link refId="南京3号线天元西路_r"/>
					<link refId="from_南京3号线胜太西路_B_to_南京3号线天元西路_A_r"/>
					<link refId="南京3号线胜太西路_r"/>
					<link refId="from_南京3号线宏运大道_B_to_南京3号线胜太西路_A_r"/>
					<link refId="南京3号线宏运大道_r"/>
					<link refId="from_南京3号线南京南站_B_to_南京3号线宏运大道_A_r"/>
					<link refId="南京3号线南京南站_r"/>
					<link refId="from_南京3号线明发广场_B_to_南京3号线南京南站_A_r"/>
					<link refId="南京3号线明发广场_r"/>
					<link refId="from_南京3号线大明路_B_to_南京3号线明发广场_A_r"/>
					<link refId="南京3号线大明路_r"/>
					<link refId="from_南京3号线卡子门_B_to_南京3号线大明路_A_r"/>
					<link refId="南京3号线卡子门_r"/>
					<link refId="from_南京3号线雨花门_B_to_南京3号线卡子门_A_r"/>
					<link refId="南京3号线雨花门_r"/>
					<link refId="from_南京3号线武定门_B_to_南京3号线雨花门_A_r"/>
					<link refId="南京3号线武定门_r"/>
					<link refId="from_南京3号线夫子庙_B_to_南京3号线武定门_A_r"/>
					<link refId="南京3号线夫子庙_r"/>
					<link refId="from_南京3号线常府街_B_to_南京3号线夫子庙_A_r"/>
					<link refId="南京3号线常府街_r"/>