<?xml version="1.0" encoding="utf-8"?>
<!DOCTYPE network
  SYSTEM 'http://www.matsim.org/files/dtd/network_v2.dtd'>
	<network>
		<nodes>
			<node id="南京3号线林场_A" x="13210421.128129018" y="3784803.3542216048"></node>
			<node id="南京3号线林场_B" x="13210443.817147652" y="3784796.67590376"></node>
			<node id="南京3号线星火路_A" x="13213230.750137424" y="3783974.1412604772"></node>
			<node id="南京3号线星火路_B" x="13213254.270951437" y="3783971.6677991585"></node>
			<node id="南京3号线东大成贤学院_A" x="13214490.325774563" y="3783843.9136330965"></node>
			<node id="南京3号线东大成贤学院_B" x="13214512.96483502" y="3783837.072863609"></node>
			<node id="南京3号线泰冯路_A" x="13215719.355286246" y="3783471.377711021"></node>
			<node id="南京3号线泰冯路_B" x="13215742.537596995" y="3783466.70112626"></node>
			<node id="南京3号线天润城_A" x="13217408.979705323" y="3783137.4815717773"></node>
			<node id="南京3号线天润城_B" x="13217425.225832012" y="3783120.298129788"></node>
			<node id="南京3号线柳洲东路_A" x="13218763.144092964" y="3781706.4084154484"></node>
			<node id="南京3号线柳洲东路_B" x="13218778.12882148" y="3781688.120486622"></node>
			<node id="南京3号线上元门_A" x="13221399.373753466" y="3778484.6882424667"></node>
			<node id="南京3号线上元门_B" x="13221418.2203856" y="3778470.4188894653"></node>
			<node id="南京3号线五塘广场_A" x="13222266.764242455" y="3777835.175452283"></node>
			<node id="南京3号线五塘广场_B" x="13222276.282003902" y="3777813.5399046657"></node>
			<node id="南京3号线小市_A" x="13223157.72196091" y="3775793.3027537046"></node>
			<node id="南京3号线小市_B" x="13223177.7907262" y="3775780.820773094"></node>
			<node id="南京3号线南京站_A" x="13224358.901402496" y="3775049.953977855"></node>
			<node id="南京3号线南京站_B" x="13224374.878394268" y="3775032.541980926"></node>
			<node id="南京3号线南京林业大学·新庄_A" x="13225922.780936953" y="3773362.1470606574"></node>
			<node id="南京3号线南京林业大学·新庄_B" x="13225911.469317388" y="3773341.4035459165"></node>
			<node id="南京3号线鸡鸣寺_A" x="13224544.250674045" y="3770841.624612065"></node>
			<node id="南京3号线鸡鸣寺_B" x="13224539.740240755" y="3770818.435552477"></node>
			<node id="南京3号线浮桥_A" x="13224324.023835687" y="3769711.3649994386"></node>
			<node id="南京3号线浮桥_B" x="13224320.25509048" y="3769688.0459436243"></node>
			<node id="南京3号线大行宫_A" x="13224178.074738711" y="3768801.959721582"></node>
			<node id="南京3号线大行宫_B" x="13224172.32073176" y="3768779.0516398"></node>
			<node id="南京3号线常府街_A" x="13223901.742697973" y="3767707.5399022335"></node>
			<node id="南京3号线常府街_B" x="13223898.73448798" y="3767684.1148695108"></node>
			<node id="南京3号线夫子庙_A" x="13223740.2872727" y="3766488.334606606"></node>
			<node id="南京3号线夫子庙_B" x="13223747.159505144" y="3766465.7418146036"></node>
			<node id="南京3号线武定门_A" x="13224160.094047662" y="3765126.879324825"></node>
			<node id="南京3号线武定门_B" x="13224155.79238066" y="3765103.662224836"></node>
			<node id="南京3号线雨花门_A" x="13223912.128573064" y="3763818.0072105234"></node>
			<node id="南京3号线雨花门_B" x="13223918.850153364" y="3763795.3743874603"></node>
			<node id="南京3号线卡子门_A" x="13224251.833554197" y="3762670.6951435134"></node>
			<node id="南京3号线卡子门_B" x="13224260.420455888" y="3762648.7046437087"></node>
			<node id="南京3号线大明路_A" x="13224712.672683857" y="3761499.77489114"></node>
			<node id="南京3号线大明路_B" x="13224714.627540547" y="3761476.2507287506"></node>
			<node id="南京3号线明发广场_A" x="13224815.483257703" y="3760309.8795336164"></node>
			<node id="南京3号线明发广场_B" x="13224809.520382348" y="3760287.04214376"></node>
			<node id="南京3号线南京南站_A" x="13224522.532182965" y="3759219.5620410074"></node>
			<node id="南京3号线南京南站_B" x="13224533.628859136" y="3759198.732815636"></node>
			<node id="南京3号线宏运大道_A" x="13225206.069648888" y="3757944.033268314"></node>
			<node id="南京3号线宏运大道_B" x="13225210.415570706" y="3757920.8394250814"></node>
			<node id="南京3号线胜太西路_A" x="13225582.33611826" y="3755943.8650719193"></node>
			<node id="南京3号线胜太西路_B" x="13225583.77455234" y="3755920.3154956787"></node>
			<node id="南京3号线天元西路_A" x="13225703.869453795" y="3753832.1566121"></node>
			<node id="南京3号线天元西路_B" x="13225719.834518496" y="3753814.7899646554"></node>
			<node id="南京3号线九龙湖_A" x="13227110.114028119" y="3752302.789673847"></node>
			<node id="南京3号线九龙湖_B" x="13227125.742920596" y="3752285.1233052574"></node>
			<node id="南京3号线诚信大道_A" x="13228082.814804398" y="3751214.5261755083"></node>
			<node id="南京3号线诚信大道_B" x="13228083.767392632" y="3751190.9606382567"></node>
			<node id="南京3号线东大九龙湖校区_A" x="13228144.973150566" y="3749683.3800236285"></node>
			<node id="南京3号线东大九龙湖校区_B" x="13228145.396320228" y="3749659.8039987125"></node>
			<node id="南京3号线秣周东路_A" x="13228208.647899298" y="3746135.872717163"></node>
			<node id="南京3号线秣周东路_B" x="13228209.07106896" y="3746112.296692247"> </node>
			<node id="南京6路清凉山公园_A" x="13220390.696680011" y="3769633.0267684427"></node>
			<node id="南京6路清凉山公园_B" x="13220414.018426528" y="3769629.270528346"></node>
			<node id="南京6路省人民医院1_A" x="13220987.556132294" y="3769528.0583732543"></node>
			<node id="南京6路省人民医院1_B" x="13221006.051135916" y="3769542.753933122"></node>
			<node id="南京6路脑科医院_A" x="13221417.026680559" y="3769871.8631753023"></node>
			<node id="南京6路脑科医院_B" x="13221437.748168431" y="3769883.2063498986"></node>
			<node id="南京6路随家仓_A" x="13221696.96608293" y="3770033.611989556"></node>
			<node id="南京6路随家仓_B" x="13221720.194833547" y="3770029.3139691884"></node>
			<node id="南京6路儿童医院_A" x="13222509.51278384" y="3769881.0176434745"></node>
			<node id="南京6路儿童医院_B" x="13222533.1353372" y="3769881.14409308"></node>
			<node id="南京6路珠江路·中山路_A" x="13223172.146410601" y="3769886.6322139725"></node>
			<node id="南京6路珠江路·中山路_B" x="13223195.426289862" y="3769882.6217360264"></node>
			<node id="南京6路莲花桥_A" x="13223731.038016452" y="3769790.7218850954"></node>
			<node id="南京6路莲花桥_B" x="13223754.182371574" y="3769785.992346271"></node>
			<node id="南京6路浮桥西_A" x="13223997.78251721" y="3769736.3268435453"></node>
			<node id="南京6路浮桥西_B" x="13224020.8808707" y="3769731.378544619"></node>
			<node id="南京6路浮桥_A" x="13224760.420462862" y="3769572.8896971075"></node>
			<node id="南京6路浮桥_B" x="13224783.542587895" y="3769568.054794998"></node>
			<node id="南京6路珠江路·小营_A" x="13225076.772735653" y="3769508.354069224"></node>
			<node id="南京6路珠江路·小营_B" x="13225099.039744848" y="3769500.468909996"></node>
			<node id="南京6路马标_A" x="13225711.541269971" y="3769277.590858261"></node>
			<node id="南京6路马标_B" x="13225734.871878443" y="3769281.288956426"></node>
			<node id="南京6路后宰门_A" x="13226839.95091188" y="3769445.063356992"></node>
			<node id="南京6路后宰门_B" x="13226843.538723521" y="3769468.4119437337"></node>
			<node id="南京6路富贵山_A" x="13226934.113925816" y="3770036.1675755014"></node>
			<node id="南京6路富贵山_B" x="13226931.049118558" y="3770059.5931331604"></node>
			<node id="南京6路板仓街·岗子村_A" x="13226661.031539088" y="3772051.736472578"></node>
			<node id="南京6路板仓街·岗子村_B" x="13226677.590313828" y="3772068.5908746105"></node>
			<node id="南京6路板仓村_A" x="13227096.471623624" y="3772495.487278391"></node>
			<node id="南京6路板仓村_B" x="13227113.559203224" y="3772511.80649062"></node>
			<node id="南京6路钟麓花园_A" x="13227491.177189993" y="3772874.6769392453"></node>
			<node id="南京6路钟麓花园_B" x="13227510.335216397" y="3772888.5083119245"></node>
			<node id="南京6路板仓街·花园路_A" x="13228010.943510473" y="3773240.4456108003"></node>
			<node id="南京6路板仓街·花园路_B" x="13228016.489323065" y="3773263.4155047876"></node>
			<node id="南京6路樱驼村_A" x="13228105.64912161" y="3773627.517971411"></node>
			<node id="南京6路樱驼村_B" x="13228108.800456459" y="3773650.937439197"></node>
			<node id="南京6路蒋王庙_A" x="13228134.26448111" y="3773895.8372662845"></node>
			<node id="南京6路蒋王庙_B" x="13228151.429571068" y="3773912.0787529484"></node>
			<node id="南京6路樱花路_A" x="13228399.875361089" y="3774140.587660802"></node>
			<node id="南京6路樱花路_B" x="13228409.020297818" y="3774162.3780167704"></node>
			<node id="南京6路樱驼花园_A" x="13228512.213203043" y="3774392.8186891945"></node>
			<node id="南京6路樱驼花园_B" x="13228509.080044296" y="3774416.24333389"></node>
			<node id="南京6路经五立交_A" x="13228308.037707746" y="3775885.3557654354"></node>
			<node id="南京6路经五立交_B" x="13228314.063845608" y="3775908.20986878"></node>
			<node id="南京6路墨香路_A" x="13228446.23264965" y="3776407.025695332"></node>
			<node id="南京6路墨香路_B" x="13228451.050684944" y="3776430.1657257057"></node>
			<node id="南京6路小营村_A" x="13228563.870433021" y="3776961.205351277"></node>
			<node id="南京6路小营村_B" x="13228564.289525483" y="3776984.838903826"></node>
			<node id="南京6路合作村_A" x="13228571.47400114" y="3777394.357664285"></node>
			<node id="南京6路合作村_B" x="13228572.048047096" y="3777417.9888706626"></node>
			<node id="南京6路万寿村_A" x="13228585.645941978" y="3777884.8560680384"></node>
			<node id="南京6路万寿村_B" x="13228581.698477285" y="3777908.1634576656"></node>
			<node id="南京6路迈化路·墨香路北_A" x="13228483.62924761" y="3778557.3266310534"></node>
			<node id="南京6路迈化路·墨香路北_B" x="13228461.076190066" y="3778550.2413183525"></node>
			<node id="南京6路土岗_A" x="13228111.494762346" y="3778432.7726819976"></node>
			<node id="南京6路土岗_B" x="13228089.373837847" y="3778441.110030634"></node>
			<node id="南京6路大瓜园_A" x="13227538.199384764" y="3778648.8469891255"></node>
			<node id="南京6路大瓜园_B" x="13227516.078460265" y="3778657.1843377617"> </node>
		</nodes>
		<links>
			<link capacity="2000" freespeed="12" from="南京3号线林场_A" id="南京3号线林场" length="19.999309762614864" modes="pt" oneway="1" permlanes="1" to="南京3号线林场_B"/>
			<link capacity="2000" freespeed="12" from="南京3号线林场_B" id="南京3号线林场_r" length="19.999309762614864" modes="pt" oneway="1" permlanes="1" to="南京3号线林场_A"/>
			<link capacity="2000" freespeed="12" from="南京3号线林场_B" id="from_南京3号线林场_B_to_南京3号线星火路_A" length="2457.1680980460897" modes="pt" oneway="1" permlanes="1" to="南京3号线星火路_A"/>
			<link capacity="2000" freespeed="12" from="南京3号线星火路_A" id="from_南京3号线林场_B_to_南京3号线星火路_A_r" length="2457.1680980460897" modes="pt" oneway="1" permlanes="1" to="南京3号线林场_B"/>
			<link capacity="2000" freespeed="12" from="南京3号线星火路_A" id="南京3号线星火路" length="19.9998895139906" modes="pt" oneway="1" permlanes="1" to="南京3号线星火路_B"/>
			<link capacity="2000" freespeed="12" from="南京3号线星火路_B" id="南京3号线星火路_r" length="19.9998895139906" modes="pt" oneway="1" permlanes="1" to="南京3号线星火路_A"/>
			<link capacity="2000" freespeed="12" from="南京3号线星火路_B" id="from_南京3号线星火路_B_to_南京3号线东大成贤学院_A" length="1050.8350036000213" modes="pt" oneway="1" permlanes="1" to="南京3号线东大成贤学院_A"/>
			<link capacity="2000" freespeed="12" from="南京3号线东大成贤学院_A" id="from_南京3号线星火路_B_to_南京3号线东大成贤学院_A_r" length="1050.8350036000213" modes="pt" oneway="1" permlanes="1" to="南京3号线星火路_B"/>
			<link capacity="2000" freespeed="12" from="南京3号线东大成贤学院_A" id="南京3号线东大成贤学院" length="19.999690053920894" modes="pt" oneway="1" permlanes="1" to="南京3号线东大成贤学院_B"/>
			<link capacity="2000" freespeed="12" from="南京3号线东大成贤学院_B" id="南京3号线东大成贤学院_r" length="19.999690053920894" modes="pt" oneway="1" permlanes="1" to="南京3号线东大成贤学院_A"/>
			<link capacity="2000" freespeed="12" from="南京3号线东大成贤学院_B" id="from_南京3号线东大成贤学院_B_to_南京3号线泰冯路_A" length="1066.0454050635633" modes="pt" oneway="1" permlanes="1" to="南京3号线泰冯路_A"/>
			<link capacity="2000" freespeed="12" from="南京3号线泰冯路_A" id="from_南京3号线东大成贤学院_B_to_南京3号线泰冯路_A_r" length="1066.0454050635633" modes="pt" oneway="1" permlanes="1" to="南京3号线东大成贤学院_B"/>
			<link capacity="2000" freespeed="12" from="南京3号线泰冯路_A" id="南京3号线泰冯路" length="19.99971620356326" modes="pt" oneway="1" permlanes="1" to="南京3号线泰冯路_B"/>
			<link capacity="2000" freespeed="12" from="南京3号线泰冯路_B" id="南京3号线泰冯路_r" length="19.99971620356326" modes="pt" oneway="1" permlanes="1" to="南京3号线泰冯路_A"/>
			<link capacity="2000" freespeed="12" from="南京3号线泰冯路_B" id="from_南京3号线泰冯路_B_to_南京3号线天润城_A" length="1436.5326226474665" modes="pt" oneway="1" permlanes="1" to="南京3号线天润城_A"/>
			<link capacity="2000" freespeed="12" from="南京3号线天润城_A" id="from_南京3号线泰冯路_B_to_南京3号线天润城_A_r" length="1436.5326226474665" modes="pt" oneway="1" permlanes="1" to="南京3号线泰冯路_B"/>
			<link capacity="2000" freespeed="12" from="南京3号线天润城_A" id="南京3号线天润城" length="19.99880569956428" modes="pt" oneway="1" permlanes="1" to="南京3号线天润城_B"/>
			<link capacity="2000" freespeed="12" from="南京3号线天润城_B" id="南京3号线天润城_r" length="19.99880569956428" modes="pt" oneway="1" permlanes="1" to="南京3号线天润城_A"/>
			<link capacity="2000" freespeed="12" from="南京3号线天润城_B" id="from_南京3号线天润城_B_to_南京3号线柳洲东路_A" length="1646.3119759716174" modes="pt" oneway="1" permlanes="1" to="南京3号线柳洲东路_A"/>
			<link capacity="2000" freespeed="12" from="南京3号线柳洲东路_A" id="from_南京3号线天润城_B_to_南京3号线柳洲东路_A_r" length="1646.3119759716174" modes="pt" oneway="1" permlanes="1" to="南京3号线天润城_B"/>
			<link capacity="2000" freespeed="12" from="南京3号线柳洲东路_A" id="南京3号线柳洲东路" length="19.99731526631332" modes="pt" oneway="1" permlanes="1" to="南京3号线柳洲东路_B"/>
			<link capacity="2000" freespeed="12" from="南京3号线柳洲东路_B" id="南京3号线柳洲东路_r" length="19.99731526631332" modes="pt" oneway="1" permlanes="1" to="南京3号线柳洲东路_A"/>
			<link capacity="2000" freespeed="12" from="南京3号线柳洲东路_B" id="from_南京3号线柳洲东路_B_to_南京3号线上元门_A" length="3501.4128860410183" modes="pt" oneway="1" permlanes="1" to="南京3号线上元门_A"/>
			<link capacity="2000" freespeed="12" from="南京3号线上元门_A" id="from_南京3号线柳洲东路_B_to_南京3号线上元门_A_r" length="3501.4128860410183" modes="pt" oneway="1" permlanes="1" to="南京3号线柳洲东路_B"/>
			<link capacity="2000" freespeed="12" from="南京3号线上元门_A" id="南京3号线上元门" length="19.99945558610511" modes="pt" oneway="1" permlanes="1" to="南京3号线上元门_B"/>
			<link capacity="2000" freespeed="12" from="南京3号线上元门_B" id="南京3号线上元门_r" length="19.99945558610511" modes="pt" oneway="1" permlanes="1" to="南京3号线上元门_A"/>
			<link capacity="2000" freespeed="12" from="南京3号线上元门_B" id="from_南京3号线上元门_B_to_南京3号线五塘广场_A" length="896.8011611885031" modes="pt" oneway="1" permlanes="1" to="南京3号线五塘广场_A"/>
			<link capacity="2000" freespeed="12" from="南京3号线五塘广场_A" id="from_南京3号线上元门_B_to_南京3号线五塘广场_A_r" length="896.8011611885031" modes="pt" oneway="1" permlanes="1" to="南京3号线上元门_B"/>
			<link capacity="2000" freespeed="12" from="南京3号线五塘广场_A" id="南京3号线五塘广场" length="19.99830241702517" modes="pt" oneway="1" permlanes="1" to="南京3号线五塘广场_B"/>
			<link capacity="2000" freespeed="12" from="南京3号线五塘广场_B" id="南京3号线五塘广场_r" length="19.99830241702517" modes="pt" oneway="1" permlanes="1" to="南京3号线五塘广场_A"/>
			<link capacity="2000" freespeed="12" from="南京3号线五塘广场_B" id="from_南京3号线五塘广场_B_to_南京3号线小市_A" length="1865.0419671136456" modes="pt" oneway="1" permlanes="1" to="南京3号线小市_A"/>
			<link capacity="2000" freespeed="12" from="南京3号线小市_A" id="from_南京3号线五塘广场_B_to_南京3号线小市_A_r" length="1865.0419671136456" modes="pt" oneway="1" permlanes="1" to="南京3号线五塘广场_B"/>
			<link capacity="2000" freespeed="12" from="南京3号线小市_A" id="南京3号线小市" length="19.999378755104008" modes="pt" oneway="1" permlanes="1" to="南京3号线小市_B"/>
			<link capacity="2000" freespeed="12" from="南京3号线小市_B" id="南京3号线小市_r" length="19.999378755104008" modes="pt" oneway="1" permlanes="1" to="南京3号线小市_A"/>
			<link capacity="2000" freespeed="12" from="南京3号线小市_B" id="from_南京3号线小市_B_to_南京3号线南京站_A" length="1175.396150565039" modes="pt" oneway="1" permlanes="1" to="南京3号线南京站_A"/>
			<link capacity="2000" freespeed="12" from="南京3号线南京站_A" id="from_南京3号线小市_B_to_南京3号线南京站_A_r" length="1175.396150565039" modes="pt" oneway="1" permlanes="1" to="南京3号线小市_B"/>
			<link capacity="2000" freespeed="12" from="南京3号线南京站_A" id="南京3号线南京站" length="19.998593038904094" modes="pt" oneway="1" permlanes="1" to="南京3号线南京站_B"/>
			<link capacity="2000" freespeed="12" from="南京3号线南京站_B" id="南京3号线南京站_r" length="19.998593038904094" modes="pt" oneway="1" permlanes="1" to="南京3号线南京站_A"/>
			<link capacity="2000" freespeed="12" from="南京3号线南京站_B" id="from_南京3号线南京站_B_to_南京3号线南京林业大学·新庄_A" length="1927.376217452078" modes="pt" oneway="1" permlanes="1" to="南京3号线南京林业大学·新庄_A"/>
			<link capacity="2000" freespeed="12" from="南京3号线南京林业大学·新庄_A" id="from_南京3号线南京站_B_to_南京3号线南京林业大学·新庄_A_r" length="1927.376217452078" modes="pt" oneway="1" permlanes="1" to="南京3号线南京站_B"/>
			<link capacity="2000" freespeed="12" from="南京3号线南京林业大学·新庄_A" id="南京3号线南京林业大学·新庄" length="19.997900829993316" modes="pt" oneway="1" permlanes="1" to="南京3号线南京林业大学·新庄_B"/>
			<link capacity="2000" freespeed="12" from="南京3号线南京林业大学·新庄_B" id="南京3号线南京林业大学·新庄_r" length="19.997900829993316" modes="pt" oneway="1" permlanes="1" to="南京3号线南京林业大学·新庄_A"/>
			<link capacity="2000" freespeed="12" from="南京3号线南京林业大学·新庄_B" id="from_南京3号线南京林业大学·新庄_B_to_南京3号线鸡鸣寺_A" length="2411.8288631335136" modes="pt" oneway="1" permlanes="1" to="南京3号线鸡鸣寺_A"/>
			<link capacity="2000" freespeed="12" from="南京3号线鸡鸣寺_A" id="from_南京3号线南京林业大学·新庄_B_to_南京3号线鸡鸣寺_A_r" length="2411.8288631335136" modes="pt" oneway="1" permlanes="1" to="南京3号线南京林业大学·新庄_B"/>
			<link capacity="2000" freespeed="12" from="南京3号线鸡鸣寺_A" id="南京3号线鸡鸣寺" length="19.999059475398607" modes="pt" oneway="1" permlanes="1" to="南京3号线鸡鸣寺_B"/>
			<link capacity="2000" freespeed="12" from="南京3号线鸡鸣寺_B" id="南京3号线鸡鸣寺_r" length="19.999059475398607" modes="pt" oneway="1" permlanes="1" to="南京3号线鸡鸣寺_A"/>
			<link capacity="2000" freespeed="12" from="南京3号线鸡鸣寺_B" id="from_南京3号线鸡鸣寺_B_to_南京3号线浮桥_A" length="954.8834694126308" modes="pt" oneway="1" permlanes="1" to="南京3号线浮桥_A"/>
			<link capacity="2000" freespeed="12" from="南京3号线浮桥_A" id="from_南京3号线鸡鸣寺_B_to_南京3号线浮桥_A_r" length="954.8834694126308" modes="pt" oneway="1" permlanes="1" to="南京3号线鸡鸣寺_B"/>
			<link capacity="2000" freespeed="12" from="南京3号线浮桥_A" id="南京3号线浮桥" length="19.999243641367787" modes="pt" oneway="1" permlanes="1" to="南京3号线浮桥_B"/>
			<link capacity="2000" freespeed="12" from="南京3号线浮桥_B" id="南京3号线浮桥_r" length="19.999243641367787" modes="pt" oneway="1" permlanes="1" to="南京3号线浮桥_A"/>
			<link capacity="2000" freespeed="12" from="南京3号线浮桥_B" id="from_南京3号线浮桥_B_to_南京3号线大行宫_A" length="759.8294101612787" modes="pt" oneway="1" permlanes="1" to="南京3号线大行宫_A"/>
			<link capacity="2000" freespeed="12" from="南京3号线大行宫_A" id="from_南京3号线浮桥_B_to_南京3号线大行宫_A_r" length="759.8294101612787" modes="pt" oneway="1" permlanes="1" to="南京3号线浮桥_B"/>
			<link capacity="2000" freespeed="12" from="南京3号线大行宫_A" id="南京3号线大行宫" length="19.999089529189554" modes="pt" oneway="1" permlanes="1" to="南京3号线大行宫_B"/>
			<link capacity="2000" freespeed="12" from="南京3号线大行宫_B" id="南京3号线大行宫_r" length="19.999089529189554" modes="pt" oneway="1" permlanes="1" to="南京3号线大行宫_A"/>
			<link capacity="2000" freespeed="12" from="南京3号线大行宫_B" id="from_南京3号线大行宫_B_to_南京3号线常府街_A" length="935.7852885082805" modes="pt" oneway="1" permlanes="1" to="南京3号线常府街_A"/>
			<link capacity="2000" freespeed="12" from="南京3号线常府街_A" id="from_南京3号线大行宫_B_to_南京3号线常府街_A_r" length="935.7852885082805" modes="pt" oneway="1" permlanes="1" to="南京3号线大行宫_B"/>
			<link capacity="2000" freespeed="12" from="南京3号线常府街_A" id="南京3号线常府街" length="19.998986550138476" modes="pt" oneway="1" permlanes="1" to="南京3号线常府街_B"/>
			<link capacity="2000" freespeed="12" from="南京3号线常府街_B" id="南京3号线常府街_r" length="19.998986550138476" modes="pt" oneway="1" permlanes="1" to="南京3号线常府街_A"/>
			<link capacity="2000" freespeed="12" from="南京3号线常府街_B" id="from_南京3号线常府街_B_to_南京3号线夫子庙_A" length="1021.4776044039302" modes="pt" oneway="1" permlanes="1" to="南京3号线夫子庙_A"/>
			<link capacity="2000" freespeed="12" from="南京3号线夫子庙_A" id="from_南京3号线常府街_B_to_南京3号线夫子庙_A_r" length="1021.4776044039302" modes="pt" oneway="1" permlanes="1" to="南京3号线常府街_B"/>
			<link capacity="2000" freespeed="12" from="南京3号线夫子庙_A" id="南京3号线夫子庙" length="19.99886796405555" modes="pt" oneway="1" permlanes="1" to="南京3号线夫子庙_B"/>
			<link capacity="2000" freespeed="12" from="南京3号线夫子庙_B" id="南京3号线夫子庙_r" length="19.99886796405555" modes="pt" oneway="1" permlanes="1" to="南京3号线夫子庙_A"/>
			<link capacity="2000" freespeed="12" from="南京3号线夫子庙_B" id="from_南京3号线夫子庙_B_to_南京3号线武定门_A" length="1186.6213816262846" modes="pt" oneway="1" permlanes="1" to="南京3号线武定门_A"/>
			<link capacity="2000" freespeed="12" from="南京3号线武定门_A" id="from_南京3号线夫子庙_B_to_南京3号线武定门_A_r" length="1186.6213816262846" modes="pt" oneway="1" permlanes="1" to="南京3号线夫子庙_B"/>
			<link capacity="2000" freespeed="12" from="南京3号线武定门_A" id="南京3号线武定门" length="19.998912490229902" modes="pt" oneway="1" permlanes="1" to="南京3号线武定门_B"/>
			<link capacity="2000" freespeed="12" from="南京3号线武定门_B" id="南京3号线武定门_r" length="19.998912490229902" modes="pt" oneway="1" permlanes="1" to="南京3号线武定门_A"/>
			<link capacity="2000" freespeed="12" from="南京3号线武定门_B" id="from_南京3号线武定门_B_to_南京3号线雨花门_A" length="1108.3584558649009" modes="pt" oneway="1" permlanes="1" to="南京3号线雨花门_A"/>
			<link capacity="2000" freespeed="12" from="南京3号线雨花门_A" id="from_南京3号线武定门_B_to_南京3号线雨花门_A_r" length="1108.3584558649009" modes="pt" oneway="1" permlanes="1" to="南京3号线武定门_B"/>
			<link capacity="2000" freespeed="12" from="南京3号线雨花门_A" id="南京3号线雨花门" length="19.999047034394817" modes="pt" oneway="1" permlanes="1" to="南京3号线雨花门_B"/>
			<link capacity="2000" freespeed="12" from="南京3号线雨花门_B" id="南京3号线雨花门_r" length="19.999047034394817" modes="pt" oneway="1" permlanes="1" to="南京3号线雨花门_A"/>
			<link capacity="2000" freespeed="12" from="南京3号线雨花门_B" id="from_南京3号线雨花门_B_to_南京3号线卡子门_A" length="993.6003894021488" modes="pt" oneway="1" permlanes="1" to="南京3号线卡子门_A"/>
			<link capacity="2000" freespeed="12" from="南京3号线卡子门_A" id="from_南京3号线雨花门_B_to_南京3号线卡子门_A_r" length="993.6003894021488" modes="pt" oneway="1" permlanes="1" to="南京3号线雨花门_B"/>
			<link capacity="2000" freespeed="12" from="南京3号线卡子门_A" id="南京3号线卡子门" length="19.99902675582121" modes="pt" oneway="1" permlanes="1" to="南京3号线卡子门_B"/>
			<link capacity="2000" freespeed="12" from="南京3号线卡子门_B" id="南京3号线卡子门_r" length="19.99902675582121" modes="pt" oneway="1" permlanes="1" to="南京3号线卡子门_A"/>
			<link capacity="2000" freespeed="12" from="南京3号线卡子门_B" id="from_南京3号线卡子门_B_to_南京3号线大明路_A" length="1046.050789657328" modes="pt" oneway="1" permlanes="1" to="南京3号线大明路_A"/>
			<link capacity="2000" freespeed="12" from="南京3号线大明路_A" id="from_南京3号线卡子门_B_to_南京3号线大明路_A_r" length="1046.050789657328" modes="pt" oneway="1" permlanes="1" to="南京3号线卡子门_B"/>
			<link capacity="2000" freespeed="12" from="南京3号线大明路_A" id="南京3号线大明路" length="19.999012160486043" modes="pt" oneway="1" permlanes="1" to="南京3号线大明路_B"/>
			<link capacity="2000" freespeed="12" from="南京3号线大明路_B" id="南京3号线大明路_r" length="19.999012160486043" modes="pt" oneway="1" permlanes="1" to="南京3号线大明路_A"/>
			<link capacity="2000" freespeed="12" from="南京3号线大明路_B" id="from_南京3号线大明路_B_to_南京3号线明发广场_A" length="991.9180905721931" modes="pt" oneway="1" permlanes="1" to="南京3号线明发广场_A"/>
			<link capacity="2000" freespeed="12" from="南京3号线明发广场_A" id="from_南京3号线大明路_B_to_南京3号线明发广场_A_r" length="991.9180905721931" modes="pt" oneway="1" permlanes="1" to="南京3号线大明路_B"/>
			<link capacity="2000" freespeed="12" from="南京3号线明发广场_A" id="南京3号线明发广场" length="19.99909562548177" modes="pt" oneway="1" permlanes="1" to="南京3号线明发广场_B"/>
			<link capacity="2000" freespeed="12" from="南京3号线明发广场_B" id="南京3号线明发广场_r" length="19.99909562548177" modes="pt" oneway="1" permlanes="1" to="南京3号线明发广场_A"/>
			<link capacity="2000" freespeed="12" from="南京3号线明发广场_B" id="from_南京3号线明发广场_B_to_南京3号线南京南站_A" length="936.6473767072321" modes="pt" oneway="1" permlanes="1" to="南京3号线南京南站_A"/>
			<link capacity="2000" freespeed="12" from="南京3号线南京南站_A" id="from_南京3号线明发广场_B_to_南京3号线南京南站_A_r" length="936.6473767072321" modes="pt" oneway="1" permlanes="1" to="南京3号线明发广场_B"/>
			<link capacity="2000" freespeed="12" from="南京3号线南京南站_A" id="南京3号线南京南站" length="19.998940307120996" modes="pt" oneway="1" permlanes="1" to="南京3号线南京南站_B"/>
			<link capacity="2000" freespeed="12" from="南京3号线南京南站_B" id="南京3号线南京南站_r" length="19.998940307120996" modes="pt" oneway="1" permlanes="1" to="南京3号线南京南站_A"/>
			<link capacity="2000" freespeed="12" from="南京3号线南京南站_B" id="from_南京3号线南京南站_B_to_南京3号线宏运大道_A" length="1206.3486694313967" modes="pt" oneway="1" permlanes="1" to="南京3号线宏运大道_A"/>
			<link capacity="2000" freespeed="12" from="南京3号线宏运大道_A" id="from_南京3号线南京南站_B_to_南京3号线宏运大道_A_r" length="1206.3486694313967" modes="pt" oneway="1" permlanes="1" to="南京3号线南京南站_B"/>
			<link capacity="2000" freespeed="12" from="南京3号线宏运大道_A" id="南京3号线宏运大道" length="19.99834023018291" modes="pt" oneway="1" permlanes="1" to="南京3号线宏运大道_B"/>
			<link capacity="2000" freespeed="12" from="南京3号线宏运大道_B" id="南京3号线宏运大道_r" length="19.99834023018291" modes="pt" oneway="1" permlanes="1" to="南京3号线宏运大道_A"/>
			<link capacity="2000" freespeed="12" from="南京3号线宏运大道_B" id="from_南京3号线宏运大道_B_to_南京3号线胜太西路_A" length="1704.9731936448986" modes="pt" oneway="1" permlanes="1" to="南京3号线胜太西路_A"/>
			<link capacity="2000" freespeed="12" from="南京3号线胜太西路_A" id="from_南京3号线宏运大道_B_to_南京3号线胜太西路_A_r" length="1704.9731936448986" modes="pt" oneway="1" permlanes="1" to="南京3号线宏运大道_B"/>
			<link capacity="2000" freespeed="12" from="南京3号线胜太西路_A" id="南京3号线胜太西路" length="19.99825115174453" modes="pt" oneway="1" permlanes="1" to="南京3号线胜太西路_B"/>
			<link capacity="2000" freespeed="12" from="南京3号线胜太西路_B" id="南京3号线胜太西路_r" length="19.99825115174453" modes="pt" oneway="1" permlanes="1" to="南京3号线胜太西路_A"/>
			<link capacity="2000" freespeed="12" from="南京3号线胜太西路_B" id="from_南京3号线胜太西路_B_to_南京3号线天元西路_A" length="1773.041551726922" modes="pt" oneway="1" permlanes="1" to="南京3号线天元西路_A"/>
			<link capacity="2000" freespeed="12" from="南京3号线天元西路_A" id="from_南京3号线胜太西路_B_to_南京3号线天元西路_A_r" length="1773.041551726922" modes="pt" oneway="1" permlanes="1" to="南京3号线胜太西路_B"/>
			<link capacity="2000" freespeed="12" from="南京3号线天元西路_A" id="南京3号线天元西路" length="19.998731965230792" modes="pt" oneway="1" permlanes="1" to="南京3号线天元西路_B"/>
			<link capacity="2000" freespeed="12" from="南京3号线天元西路_B" id="南京3号线天元西路_r" length="19.998731965230792" modes="pt" oneway="1" permlanes="1" to="南京3号线天元西路_A"/>
			<link capacity="2000" freespeed="12" from="南京3号线天元西路_B" id="from_南京3号线天元西路_B_to_南京3号线九龙湖_A" length="1741.4445495749967" modes="pt" oneway="1" permlanes="1" to="南京3号线九龙湖_A"/>
			<link capacity="2000" freespeed="12" from="南京3号线九龙湖_A" id="from_南京3号线天元西路_B_to_南京3号线九龙湖_A_r" length="1741.4445495749967" modes="pt" oneway="1" permlanes="1" to="南京3号线天元西路_B"/>
			<link capacity="2000" freespeed="12" from="南京3号线九龙湖_A" id="南京3号线九龙湖" length="19.999095598489102" modes="pt" oneway="1" permlanes="1" to="南京3号线九龙湖_B"/>
			<link capacity="2000" freespeed="12" from="南京3号线九龙湖_B" id="南京3号线九龙湖_r" length="19.999095598489102" modes="pt" oneway="1" permlanes="1" to="南京3号线九龙湖_A"/>
			<link capacity="2000" freespeed="12" from="南京3号线九龙湖_B" id="from_南京3号线九龙湖_B_to_南京3号线诚信大道_A" length="1217.6222139959505" modes="pt" oneway="1" permlanes="1" to="南京3号线诚信大道_A"/>
			<link capacity="2000" freespeed="12" from="南京3号线诚信大道_A" id="from_南京3号线九龙湖_B_to_南京3号线诚信大道_A_r" length="1217.6222139959505" modes="pt" oneway="1" permlanes="1" to="南京3号线九龙湖_B"/>
			<link capacity="2000" freespeed="12" from="南京3号线诚信大道_A" id="南京3号线诚信大道" length="19.998731312275087" modes="pt" oneway="1" permlanes="1" to="南京3号线诚信大道_B"/>
			<link capacity="2000" freespeed="12" from="南京3号线诚信大道_B" id="南京3号线诚信大道_r" length="19.998731312275087" modes="pt" oneway="1" permlanes="1" to="南京3号线诚信大道_A"/>
			<link capacity="2000" freespeed="12" from="南京3号线诚信大道_B" id="from_南京3号线诚信大道_B_to_南京3号线东大九龙湖校区_A" length="1279.4881891837751" modes="pt" oneway="1" permlanes="1" to="南京3号线东大九龙湖校区_A"/>
			<link capacity="2000" freespeed="12" from="南京3号线东大九龙湖校区_A" id="from_南京3号线诚信大道_B_to_南京3号线东大九龙湖校区_A_r" length="1279.4881891837751" modes="pt" oneway="1" permlanes="1" to="南京3号线诚信大道_B"/>
			<link capacity="2000" freespeed="12" from="南京3号线东大九龙湖校区_A" id="南京3号线东大九龙湖校区" length="19.99706205522392" modes="pt" oneway="1" permlanes="1" to="南京3号线东大九龙湖校区_B"/>
			<link capacity="2000" freespeed="12" from="南京3号线东大九龙湖校区_B" id="南京3号线东大九龙湖校区_r" length="19.99706205522392" modes="pt" oneway="1" permlanes="1" to="南京3号线东大九龙湖校区_A"/>
			<link capacity="2000" freespeed="12" from="南京3号线东大九龙湖校区_B" id="from_南京3号线东大九龙湖校区_B_to_南京3号线秣周东路_A" length="2989.4193740742276" modes="pt" oneway="1" permlanes="1" to="南京3号线秣周东路_A"/>
			<link capacity="2000" freespeed="12" from="南京3号线秣周东路_A" id="from_南京3号线东大九龙湖校区_B_to_南京3号线秣周东路_A_r" length="2989.4193740742276" modes="pt" oneway="1" permlanes="1" to="南京3号线东大九龙湖校区_B"/>
			<link capacity="2000" freespeed="12" from="南京3号线秣周东路_A" id="南京3号线秣周东路" length="20.0029374950749" modes="pt" oneway="1" permlanes="1" to="南京3号线秣周东路_B"/>
			<link capacity="2000" freespeed="12" from="南京3号线秣周东路_B" id="南京3号线秣周东路_r" length="20.0029374950749" modes="pt" oneway="1" permlanes="1" to="南京3号线秣周东路_A"/>
			<link capacity="2000" freespeed="12" from="南京6路清凉山公园_A" id="南京6路清凉山公园" length="19.999920349004014" modes="pt" oneway="1" permlanes="1" to="南京6路清凉山公园_B"/>
			<link capacity="2000" freespeed="12" from="南京6路清凉山公园_B" id="南京6路清凉山公园_r" length="19.999920349004014" modes="pt" oneway="1" permlanes="1" to="南京6路清凉山公园_A"/>
			<link capacity="2000" freespeed="12" from="南京6路清凉山公园_B" id="from_南京6路清凉山公园_B_to_南京6路省人民医院1_A" length="493.093255125772" modes="pt" oneway="1" permlanes="1" to="南京6路省人民医院1_A"/>
			<link capacity="2000" freespeed="12" from="南京6路省人民医院1_A" id="from_南京6路清凉山公园_B_to_南京6路省人民医院1_A_r" length="493.093255125772" modes="pt" oneway="1" permlanes="1" to="南京6路清凉山公园_B"/>
			<link capacity="2000" freespeed="12" from="南京6路省人民医院1_A" id="南京6路省人民医院1" length="20.00028464174452" modes="pt" oneway="1" permlanes="1" to="南京6路省人民医院1_B"/>
			<link capacity="2000" freespeed="12" from="南京6路省人民医院1_B" id="南京6路省人民医院1_r" length="20.00028464174452" modes="pt" oneway="1" permlanes="1" to="南京6路省人民医院1_A"/>
			<link capacity="2000" freespeed="12" from="南京6路省人民医院1_B" id="from_南京6路省人民医院1_B_to_南京6路脑科医院_A" length="445.7698531551757" modes="pt" oneway="1" permlanes="1" to="南京6路脑科医院_A"/>
			<link capacity="2000" freespeed="12" from="南京6路脑科医院_A" id="from_南京6路省人民医院1_B_to_南京6路脑科医院_A_r" length="445.7698531551757" modes="pt" oneway="1" permlanes="1" to="南京6路省人民医院1_B"/>
			<link capacity="2000" freespeed="12" from="南京6路脑科医院_A" id="南京6路脑科医院" length="20.000128069069927" modes="pt" oneway="1" permlanes="1" to="南京6路脑科医院_B"/>
			<link capacity="2000" freespeed="12" from="南京6路脑科医院_B" id="南京6路脑科医院_r" length="20.000128069069927" modes="pt" oneway="1" permlanes="1" to="南京6路脑科医院_A"/>